LTspice 24.1.7 for Windows
Circuit: Z:\home\daniel\GitHub\ECE2799_LED-Lamp\Simulation\LT3799-1_DC1816A.net
Start Time: Tue Apr 15 08:41:51 2025
solver = Normal
Maximum thread count: 16
tnom = 27
temp = 27
method = modified trap
Z:\home\daniel\GitHub\ECE2799_LED-Lamp\Simulation\LT3799-1_DC1816A.net(32): Limiting fall time to 0.1.

V2 N023 0 PULSE(0.2 2 10m 100m 0 1)
^^^^^^^^^^^^^^^^^^^^^^^^^^^^^^^^^^^
Direct Newton iteration for .op point succeeded.
Total elapsed time: 1059.201 seconds.

Files loaded:
Z:\home\daniel\GitHub\ECE2799_LED-Lamp\Simulation\LT3799-1_DC1816A.net
C:\users\daniel\AppData\Local\LTspice\lib\cmp\standard.dio
C:\users\daniel\AppData\Local\LTspice\lib\cmp\standard.mos
C:\users\daniel\AppData\Local\LTspice\lib\sub\LT3799-1.sub
Z:\home\daniel\GitHub\ECE2799_LED-Lamp\Simulation\LT Spice_WE-OLLT (rev24a)\WE-OLLT.lib

