LTspice 24.0.9 for Windows
Circuit: * C:\Users\elect\Documents\GitHub\ECE2799_LED-Lamp\Simulation\LT3799-1_DC1816A.asc
Start Time: Thu Apr 10 13:50:08 2025
Warning: Multiple definitions of model "1n4007" Type: Diode
solver = Normal
Maximum thread count: 16
tnom = 27
temp = 27
method = modified trap
Limiting fall time of source v2 to 0.1
ERROR: Node NC_02 is floating and connected to current source G:U2:_TH

Direct Newton iteration failed to find .op point.  (Use ".option noopiter" to skip.)
Starting Gmin stepping
Gmin = 10
Gmin = 1.07374
Gmin = 0.115292
Gmin = 0.0123794
Gmin = 0.00132923
Gmin = 0.000142725
Gmin = 1.5325e-05
Gmin = 1.6455e-06
Gmin = 1.76685e-07
Gmin = 1.89714e-08
Gmin = 2.03704e-09
Gmin = 2.18725e-10
Gmin = 2.34854e-11
Gmin = 2.52173e-12
Gmin = 2.70769e-13
Gmin = 0
Gmin stepping succeeded in finding the operating point.

Ignoring empty pin current: Ix(u1:12)
Ignoring empty pin current: Ix(u1:12)
Heightened Def Con from 1.06819e-05 to 1.06839e-05
Heightened Def Con from 1.06846e-05 to 1.06866e-05
Heightened Def Con from 1.06892e-05 to 1.06902e-05
Heightened Def Con from 1.06902e-05 to 1.06903e-05
Heightened Def Con from 1.06904e-05 to 1.06915e-05
Heightened Def Con from 1.06922e-05 to 1.06924e-05
Heightened Def Con from 1.06924e-05 to 1.06936e-05
Heightened Def Con from 1.06953e-05 to 1.06953e-05
Heightened Def Con from 1.06956e-05 to 1.06976e-05
Heightened Def Con from 1.07284e-05 to 1.07286e-05
Heightened Def Con from 1.07294e-05 to 1.07294e-05
Heightened Def Con from 1.07295e-05 to 1.07305e-05
Heightened Def Con from 1.07305e-05 to 1.07307e-05
Heightened Def Con from 1.07385e-05 to 1.07405e-05
Heightened Def Con from 1.07408e-05 to 1.07418e-05
Heightened Def Con from 1.07418e-05 to 1.07421e-05
Heightened Def Con from 1.0743e-05 to 1.0744e-05
Heightened Def Con from 1.0744e-05 to 1.0746e-05
Heightened Def Con from 1.0746e-05 to 1.0746e-05
Heightened Def Con from 1.0746e-05 to 1.0747e-05
Heightened Def Con from 1.07471e-05 to 1.07473e-05
Heightened Def Con from 1.07484e-05 to 1.07484e-05
Heightened Def Con from 1.07484e-05 to 1.07504e-05
Heightened Def Con from 1.07581e-05 to 1.07583e-05
Heightened Def Con from 1.07583e-05 to 1.07585e-05
Heightened Def Con from 1.07586e-05 to 1.07586e-05
Heightened Def Con from 1.07586e-05 to 1.07588e-05
Heightened Def Con from 1.07588e-05 to 1.07608e-05
Heightened Def Con from 1.07613e-05 to 1.07633e-05
Heightened Def Con from 1.0783e-05 to 1.07832e-05
Heightened Def Con from 1.07832e-05 to 1.07832e-05
Heightened Def Con from 1.07853e-05 to 1.07873e-05
Heightened Def Con from 1.13547e-05 to 1.13559e-05
Heightened Def Con from 1.13563e-05 to 1.13583e-05
Heightened Def Con from 1.13586e-05 to 1.13597e-05
Heightened Def Con from 1.13603e-05 to 1.13614e-05
Heightened Def Con from 1.1364e-05 to 1.1364e-05
Heightened Def Con from 1.1364e-05 to 1.13641e-05
Heightened Def Con from 1.13643e-05 to 1.13643e-05
Heightened Def Con from 1.13644e-05 to 1.13655e-05
Heightened Def Con from 1.13659e-05 to 1.13669e-05
Heightened Def Con from 1.13712e-05 to 1.13722e-05
Heightened Def Con from 1.13722e-05 to 1.13722e-05
Heightened Def Con from 1.13722e-05 to 1.13722e-05
Heightened Def Con from 1.13722e-05 to 1.13742e-05
Heightened Def Con from 1.13763e-05 to 1.13783e-05
Heightened Def Con from 1.13803e-05 to 1.13823e-05
Heightened Def Con from 1.14042e-05 to 1.14062e-05
Heightened Def Con from 1.14359e-05 to 1.14379e-05
Heightened Def Con from 1.1507e-05 to 1.15072e-05
Heightened Def Con from 1.15072e-05 to 1.15092e-05
Heightened Def Con from 1.15092e-05 to 1.15094e-05
Heightened Def Con from 1.15094e-05 to 1.15104e-05
Heightened Def Con from 1.15104e-05 to 1.15106e-05
Heightened Def Con from 1.15113e-05 to 1.15113e-05
Heightened Def Con from 1.15113e-05 to 1.15133e-05
Heightened Def Con from 1.15135e-05 to 1.15155e-05
Heightened Def Con from 1.15155e-05 to 1.15158e-05
Heightened Def Con from 1.15164e-05 to 1.15184e-05
Heightened Def Con from 1.15251e-05 to 1.15253e-05
Heightened Def Con from 1.15253e-05 to 1.15255e-05
Heightened Def Con from 1.15255e-05 to 1.15255e-05
Heightened Def Con from 1.15255e-05 to 1.15255e-05
Heightened Def Con from 1.15256e-05 to 1.15256e-05
Heightened Def Con from 1.15256e-05 to 1.15257e-05
Heightened Def Con from 1.15259e-05 to 1.1526e-05
Heightened Def Con from 1.1526e-05 to 1.15271e-05
Heightened Def Con from 1.15285e-05 to 1.15287e-05
Heightened Def Con from 1.15295e-05 to 1.15295e-05
Heightened Def Con from 1.15295e-05 to 1.15297e-05
Heightened Def Con from 1.15297e-05 to 1.15317e-05
Heightened Def Con from 1.15333e-05 to 1.15343e-05
Heightened Def Con from 1.15345e-05 to 1.15365e-05
Heightened Def Con from 1.15365e-05 to 1.15365e-05
Heightened Def Con from 1.15367e-05 to 1.15378e-05
Heightened Def Con from 1.15403e-05 to 1.15423e-05
Heightened Def Con from 1.15425e-05 to 1.15428e-05
Heightened Def Con from 1.15438e-05 to 1.15438e-05
Heightened Def Con from 1.15438e-05 to 1.15449e-05
Heightened Def Con from 1.15452e-05 to 1.15472e-05
Heightened Def Con from 1.1556e-05 to 1.15562e-05
Heightened Def Con from 1.15562e-05 to 1.15582e-05
Heightened Def Con from 1.15594e-05 to 1.15594e-05
Heightened Def Con from 1.15595e-05 to 1.15615e-05
Heightened Def Con from 1.15615e-05 to 1.15635e-05
Heightened Def Con from 1.15639e-05 to 1.1565e-05
Heightened Def Con from 1.15651e-05 to 1.15651e-05
Heightened Def Con from 1.15651e-05 to 1.15671e-05
Heightened Def Con from 1.15738e-05 to 1.1574e-05
Heightened Def Con from 1.15745e-05 to 1.15745e-05
Heightened Def Con from 1.15745e-05 to 1.15765e-05
Heightened Def Con from 1.15767e-05 to 1.15787e-05
Heightened Def Con from 1.15835e-05 to 1.15847e-05
Heightened Def Con from 1.15849e-05 to 1.15859e-05
Heightened Def Con from 1.15859e-05 to 1.15879e-05
Heightened Def Con from 1.15883e-05 to 1.15893e-05
Heightened Def Con from 1.15893e-05 to 1.15893e-05
Heightened Def Con from 1.15894e-05 to 1.15914e-05
Heightened Def Con from 1.18667e-05 to 1.18678e-05
Heightened Def Con from 1.18694e-05 to 1.18704e-05
Heightened Def Con from 1.18704e-05 to 1.18724e-05
Heightened Def Con from 1.18745e-05 to 1.18746e-05
Heightened Def Con from 1.18746e-05 to 1.18747e-05
Heightened Def Con from 1.18747e-05 to 1.18767e-05
Heightened Def Con from 1.18767e-05 to 1.18768e-05
Heightened Def Con from 1.18768e-05 to 1.18771e-05
Heightened Def Con from 1.18773e-05 to 1.18775e-05
Heightened Def Con from 1.18783e-05 to 1.18783e-05
Heightened Def Con from 1.18784e-05 to 1.18785e-05
Heightened Def Con from 1.18826e-05 to 1.18827e-05
Heightened Def Con from 1.18875e-05 to 1.18895e-05
Heightened Def Con from 1.18896e-05 to 1.18896e-05
Heightened Def Con from 1.18896e-05 to 1.18916e-05
Heightened Def Con from 1.18925e-05 to 1.18937e-05
Heightened Def Con from 1.18941e-05 to 1.18943e-05
Heightened Def Con from 1.18943e-05 to 1.18944e-05
Heightened Def Con from 1.18944e-05 to 1.18946e-05
Heightened Def Con from 1.18952e-05 to 1.18972e-05
Heightened Def Con from 1.18993e-05 to 1.19013e-05
Heightened Def Con from 1.19078e-05 to 1.19088e-05
Heightened Def Con from 1.19088e-05 to 1.19108e-05
Heightened Def Con from 1.19458e-05 to 1.19461e-05
Heightened Def Con from 1.19466e-05 to 1.19476e-05
Heightened Def Con from 1.19476e-05 to 1.19476e-05
Heightened Def Con from 1.19476e-05 to 1.19496e-05
Heightened Def Con from 1.19777e-05 to 1.19778e-05
Heightened Def Con from 1.19778e-05 to 1.1979e-05
Heightened Def Con from 1.1979e-05 to 1.1981e-05
Heightened Def Con from 1.19853e-05 to 1.19854e-05
Heightened Def Con from 1.19854e-05 to 1.19857e-05
Heightened Def Con from 1.19857e-05 to 1.19877e-05
Heightened Def Con from 1.19897e-05 to 1.19909e-05
Heightened Def Con from 1.19909e-05 to 1.1992e-05
Heightened Def Con from 1.19932e-05 to 1.19933e-05
Heightened Def Con from 1.19938e-05 to 1.1994e-05
Heightened Def Con from 1.1994e-05 to 1.19941e-05
Heightened Def Con from 1.19941e-05 to 1.19952e-05
Heightened Def Con from 1.19955e-05 to 1.19975e-05
Heightened Def Con from 1.19976e-05 to 1.19976e-05
Heightened Def Con from 1.19981e-05 to 1.20001e-05
Heightened Def Con from 1.20163e-05 to 1.20174e-05
Heightened Def Con from 1.20175e-05 to 1.20177e-05
Heightened Def Con from 1.20185e-05 to 1.20205e-05
Heightened Def Con from 1.20205e-05 to 1.20225e-05
Heightened Def Con from 1.21135e-05 to 1.21135e-05
Heightened Def Con from 1.21136e-05 to 1.21136e-05
Heightened Def Con from 1.21136e-05 to 1.21138e-05
Heightened Def Con from 1.21147e-05 to 1.21147e-05
Heightened Def Con from 1.21147e-05 to 1.21167e-05
Heightened Def Con from 1.23762e-05 to 1.23762e-05
Heightened Def Con from 1.23762e-05 to 1.23763e-05
Heightened Def Con from 1.23765e-05 to 1.23765e-05
Heightened Def Con from 1.23765e-05 to 1.23785e-05
Heightened Def Con from 1.23785e-05 to 1.23786e-05
Heightened Def Con from 1.23786e-05 to 1.23806e-05
Heightened Def Con from 1.23833e-05 to 1.23843e-05
Heightened Def Con from 1.23843e-05 to 1.23853e-05
Heightened Def Con from 1.23869e-05 to 1.2387e-05
Heightened Def Con from 1.23872e-05 to 1.23875e-05
Heightened Def Con from 1.23925e-05 to 1.23927e-05
Heightened Def Con from 1.23927e-05 to 1.23938e-05
Heightened Def Con from 1.23944e-05 to 1.23954e-05
Heightened Def Con from 1.23964e-05 to 1.23964e-05
Heightened Def Con from 1.23964e-05 to 1.23975e-05
Heightened Def Con from 1.23985e-05 to 1.23997e-05
Heightened Def Con from 1.23999e-05 to 1.24019e-05
Heightened Def Con from 1.24055e-05 to 1.24055e-05
Heightened Def Con from 1.24055e-05 to 1.24056e-05
Heightened Def Con from 1.24056e-05 to 1.24076e-05
Heightened Def Con from 1.24452e-05 to 1.24455e-05
Heightened Def Con from 1.24466e-05 to 1.24467e-05
Heightened Def Con from 1.24467e-05 to 1.24467e-05
Heightened Def Con from 1.24467e-05 to 1.24468e-05
Heightened Def Con from 1.24468e-05 to 1.24478e-05
Heightened Def Con from 1.24478e-05 to 1.24478e-05
Heightened Def Con from 1.24478e-05 to 1.24478e-05
Heightened Def Con from 1.24478e-05 to 1.24478e-05
Heightened Def Con from 1.24478e-05 to 1.24478e-05
Heightened Def Con from 1.24478e-05 to 1.24489e-05
Heightened Def Con from 1.2449e-05 to 1.24501e-05
Heightened Def Con from 1.24504e-05 to 1.24506e-05
Heightened Def Con from 1.24507e-05 to 1.24509e-05
Heightened Def Con from 1.24517e-05 to 1.24528e-05
Heightened Def Con from 1.24535e-05 to 1.24555e-05
Heightened Def Con from 1.24555e-05 to 1.24558e-05
Heightened Def Con from 1.24565e-05 to 1.24585e-05
Heightened Def Con from 1.24586e-05 to 1.24588e-05
Heightened Def Con from 1.24589e-05 to 1.24609e-05
Heightened Def Con from 1.24678e-05 to 1.24698e-05
Heightened Def Con from 1.24838e-05 to 1.24838e-05
Heightened Def Con from 1.24838e-05 to 1.24848e-05
Heightened Def Con from 1.24849e-05 to 1.24851e-05
Heightened Def Con from 1.24859e-05 to 1.2487e-05
Heightened Def Con from 1.249e-05 to 1.24902e-05
Heightened Def Con from 1.24904e-05 to 1.24924e-05
Heightened Def Con from 1.25224e-05 to 1.25224e-05
Heightened Def Con from 1.25225e-05 to 1.25225e-05
Heightened Def Con from 1.25225e-05 to 1.25235e-05
Heightened Def Con from 1.25236e-05 +to 1.25257e-05
Heightened Def Con from 1.25317e-05 to 1.25337e-05
Heightened Def Con from 1.25339e-05 to 1.25359e-05
Heightened Def Con from 1.25362e-05 to 1.25362e-05
Heightened Def Con from 1.25363e-05 to 1.25363e-05
Heightened Def Con from 1.25363e-05 to 1.25374e-05
Heightened Def Con from 1.25382e-05 to 1.25382e-05
Heightened Def Con from 1.25382e-05 to 1.25392e-05
Heightened Def Con from 1.25392e-05 to 1.25393e-05
Heightened Def Con from 1.25396e-05 to 1.25398e-05
Heightened Def Con from 1.25398e-05 to 1.25408e-05
Heightened Def Con from 1.25409e-05 to 1.25429e-05
Heightened Def Con from 1.25429e-05 to 1.2543e-05
Heightened Def Con from 1.2543e-05 to 1.25431e-05
Heightened Def Con from 1.25433e-05 to 1.25453e-05
Heightened Def Con from 1.25523e-05 to 1.25534e-05
Heightened Def Con from 1.25538e-05 to 1.25558e-05
Heightened Def Con from 1.25558e-05 to 1.25578e-05
Heightened Def Con from 1.2558e-05 to 1.2559e-05
Heightened Def Con from 1.25594e-05 to 1.25614e-05
Heightened Def Con from 1.25695e-05 to 1.25715e-05
Heightened Def Con from 1.25715e-05 to 1.25735e-05
Heightened Def Con from 1.25866e-05 to 1.25866e-05
Heightened Def Con from 1.25867e-05 to 1.25887e-05
Heightened Def Con from 1.2589e-05 to 1.2589e-05
Heightened Def Con from 1.25891e-05 to 1.25902e-05
Heightened Def Con from 1.25905e-05 to 1.25915e-05
Heightened Def Con from 1.25915e-05 to 1.25935e-05
Heightened Def Con from 1.2599e-05 to 1.25992e-05
Heightened Def Con from 1.25992e-05 to 1.26012e-05
Heightened Def Con from 1.26017e-05 to 1.26019e-05
Heightened Def Con from 1.26019e-05 to 1.2602e-05
Heightened Def Con from 1.2602e-05 to 1.26022e-05
Heightened Def Con from 1.26023e-05 to 1.26033e-05
Heightened Def Con from 1.26033e-05 to 1.26035e-05
Heightened Def Con from 1.26044e-05 to 1.26045e-05
Heightened Def Con from 1.26046e-05 to 1.26066e-05
Heightened Def Con from 1.26071e-05 to 1.26081e-05
Heightened Def Con from 1.26107e-05 to 1.26127e-05
Heightened Def Con from 1.26285e-05 to 1.26286e-05
Heightened Def Con from 1.26286e-05 to 1.26306e-05
Heightened Def Con from 1.26985e-05 to 1.26995e-05
Heightened Def Con from 1.26995e-05 to 1.26995e-05
Heightened Def Con from 1.26995e-05 to 1.26998e-05
Heightened Def Con from 1.27e-05 to 1.27011e-05
Heightened Def Con from 1.27011e-05 to 1.27012e-05
Heightened Def Con from 1.27012e-05 to 1.27024e-05
Heightened Def Con from 1.27029e-05 to 1.27029e-05
Heightened Def Con from 1.27031e-05 to 1.27032e-05
Heightened Def Con from 1.27035e-05 to 1.27038e-05
Heightened Def Con from 1.27042e-05 to 1.27054e-05
Heightened Def Con from 1.27056e-05 to 1.27056e-05
Heightened Def Con from 1.27056e-05 to 1.27056e-05
Heightened Def Con from 1.27057e-05 to 1.27058e-05
Heightened Def Con from 1.27058e-05 to 1.27078e-05
Heightened Def Con from 1.27079e-05 to 1.27081e-05
Heightened Def Con from 1.27083e-05 to 1.27085e-05
Heightened Def Con from 1.27086e-05 to 1.27087e-05
Heightened Def Con from 1.27089e-05 to 1.27099e-05
Heightened Def Con from 1.27099e-05 to 1.27102e-05
Heightened Def Con from 1.2714e-05 to 1.27142e-05
Heightened Def Con from 1.27142e-05 to 1.27162e-05
Heightened Def Con from 1.27165e-05 to 1.27166e-05
Heightened Def Con from 1.27167e-05 to 1.27169e-05
Heightened Def Con from 1.2717e-05 to 1.2718e-05
Heightened Def Con from 1.27191e-05 to 1.27202e-05
Heightened Def Con from 1.27203e-05 to 1.27223e-05
Heightened Def Con from 1.27283e-05 to 1.27284e-05
Heightened Def Con from 1.27291e-05 to 1.27302e-05
Heightened Def Con from 1.2731e-05 to 1.2732e-05
Heightened Def Con from 1.2732e-05 to 1.27322e-05
Heightened Def Con from 1.27323e-05 to 1.27343e-05
Heightened Def Con from 1.27643e-05 to 1.27645e-05
Heightened Def Con from 1.27648e-05 to 1.27659e-05
Heightened Def Con from 1.27667e-05 to 1.27668e-05
Heightened Def Con from 1.27674e-05 to 1.27694e-05
Heightened Def Con from 1.27696e-05 to 1.27707e-05
Heightened Def Con from 1.28148e-05 to 1.28168e-05
Heightened Def Con from 1.28258e-05 to 1.28269e-05
Heightened Def Con from 1.28271e-05 to 1.28281e-05
Heightened Def Con from 1.28281e-05 to 1.28282e-05
Heightened Def Con from 1.28282e-05 to 1.28284e-05
Heightened Def Con from 1.28284e-05 to 1.28294e-05
Heightened Def Con from 1.28294e-05 to 1.28314e-05
Heightened Def Con from 1.28314e-05 to 1.28314e-05
Heightened Def Con from 1.28314e-05 to 1.28314e-05
Heightened Def Con from 1.28314e-05 to 1.28324e-05
Heightened Def Con from 1.28337e-05 to 1.28357e-05
Heightened Def Con from 1.28367e-05 to 1.28387e-05
Heightened Def Con from 1.28395e-05 to 1.28415e-05
Heightened Def Con from 1.2842e-05 to 1.2843e-05
Heightened Def Con from 1.28432e-05 to 1.28452e-05
Heightened Def Con from 1.28453e-05 to 1.28464e-05
Heightened Def Con from 1.28502e-05 to 1.28503e-05
Heightened Def Con from 1.28504e-05 to 1.28524e-05
Heightened Def Con from 1.28548e-05 to 1.2855e-05
Heightened Def Con from 1.28556e-05 to 1.28556e-05
Heightened Def Con from 1.28556e-05 to 1.28557e-05
Heightened Def Con from 1.28557e-05 to 1.28558e-05
Heightened Def Con from 1.28558e-05 to 1.2856e-05
Heightened Def Con from 1.2856e-05 to 1.28563e-05
Heightened Def Con from 1.28565e-05 to 1.28575e-05
Heightened Def Con from 1.28575e-05 to 1.28576e-05
Heightened Def Con from 1.28576e-05 to 1.28596e-05
Heightened Def Con from 1.28596e-05 to 1.28599e-05
Heightened Def Con from 1.28612e-05 to 1.28632e-05
Heightened Def Con from 1.28633e-05 to 1.28633e-05
Heightened Def Con from 1.28633e-05 to 1.28643e-05
Heightened Def Con from 1.28643e-05 to 1.28643e-05
Heightened Def Con from 1.28643e-05 to 1.28644e-05
Heightened Def Con from 1.28646e-05 to 1.28666e-05
Heightened Def Con from 1.2867e-05 to 1.2869e-05
Heightened Def Con from 1.28709e-05 to 1.28709e-05
Heightened Def Con from 1.28709e-05 to 1.2871e-05
Heightened Def Con from 1.2871e-05 to 1.28713e-05
Heightened Def Con from 1.28714e-05 to 1.28714e-05
Heightened Def Con from 1.28714e-05 to 1.28734e-05
Heightened Def Con from 1.28735e-05 to 1.28735e-05
Heightened Def Con from 1.28735e-05 to 1.28737e-05
Heightened Def Con from 1.28761e-05 to 1.28781e-05
Heightened Def Con from 1.28781e-05 to 1.28801e-05
Heightened Def Con from 1.28906e-05 to 1.28909e-05
Heightened Def Con from 1.28909e-05 to 1.28929e-05
Heightened Def Con from 1.28929e-05 to 1.28932e-05
Heightened Def Con from 1.28932e-05 to 1.28932e-05
Heightened Def Con from 1.28932e-05 to 1.28932e-05
Heightened Def Con from 1.28933e-05 to 1.28933e-05
Heightened Def Con from 1.28933e-05 to 1.28945e-05
Heightened Def Con from 1.2895e-05 to 1.28951e-05
Heightened Def Con from 1.28951e-05 to 1.28961e-05
Heightened Def Con from 1.28961e-05 to 1.28964e-05
Heightened Def Con from 1.28964e-05 to 1.28975e-05
Heightened Def Con from 1.28978e-05 to 1.28998e-05
Heightened Def Con from 1.29094e-05 to 1.29114e-05
Heightened Def Con from 1.29136e-05 to 1.29138e-05
Heightened Def Con from 1.29138e-05 to 1.29138e-05
Heightened Def Con from 1.29138e-05 to 1.29148e-05
Heightened Def Con from 1.29148e-05 to 1.29158e-05
Heightened Def Con from 1.29158e-05 to 1.2916e-05
Heightened Def Con from 1.29162e-05 to 1.29182e-05
Heightened Def Con from 1.29185e-05 to 1.29205e-05
Heightened Def Con from 1.29231e-05 to 1.29234e-05
Heightened Def Con from 1.29236e-05 to 1.29256e-05
Heightened Def Con from 1.29272e-05 to 1.29272e-05
Heightened Def Con from 1.29272e-05 to 1.29292e-05
Heightened Def Con from 1.29634e-05 to 1.29644e-05
Heightened Def Con from 1.29644e-05 to 1.29645e-05
Heightened Def Con from 1.29646e-05 to 1.29648e-05
Heightened Def Con from 1.29648e-05 to 1.29648e-05
Heightened Def Con from 1.29648e-05 to 1.29648e-05
Heightened Def Con from 1.29648e-05 to 1.2966e-05
Heightened Def Con from 1.2966e-05 to 1.2968e-05
Heightened Def Con from 1.29794e-05 to 1.29795e-05
Heightened Def Con from 1.2982e-05 to 1.29831e-05
Heightened Def Con from 1.29832e-05 to 1.29842e-05
Heightened Def Con from 1.29842e-05 to 1.29843e-05
Heightened Def Con from 1.29843e-05 to 1.29863e-05
Heightened Def Con from 1.29883e-05 to 1.29903e-05
Heightened Def Con from 1.29929e-05 to 1.29949e-05
Heightened Def Con from 1.29973e-05 to 1.29973e-05
Heightened Def Con from 1.29973e-05 to 1.29993e-05
Heightened Def Con from 1.29994e-05 to 1.29995e-05
Heightened Def Con from 1.30048e-05 to 1.30048e-05
Heightened Def Con from 1.30049e-05 to 1.30049e-05
Heightened Def Con from 1.30049e-05 to 1.3005e-05
Heightened Def Con from 1.3005e-05 to 1.30062e-05
Heightened Def Con from 1.30062e-05 to 1.30062e-05
Heightened Def Con from 1.30063e-05 to 1.30064e-05
Heightened Def Con from 1.30066e-05 to 1.30066e-05
Heightened Def Con from 1.30071e-05 to 1.30081e-05
Heightened Def Con from 1.30081e-05 to 1.30093e-05
Heightened Def Con from 1.301e-05 +to 1.3012e-05
Heightened Def Con from 1.30124e-05 to 1.30127e-05
Heightened Def Con from 1.30129e-05 to 1.30149e-05
Heightened Def Con from 1.30154e-05 to 1.30174e-05
Heightened Def Con from 1.30186e-05 to 1.30186e-05
Heightened Def Con from 1.30187e-05 to 1.30187e-05
Heightened Def Con from 1.30187e-05 to 1.30189e-05
Heightened Def Con from 1.30189e-05 to 1.30201e-05
Heightened Def Con from 1.30212e-05 to 1.30213e-05
Heightened Def Con from 1.30214e-05 to 1.30216e-05
Heightened Def Con from 1.30219e-05 to 1.30219e-05
Heightened Def Con from 1.30219e-05 to 1.30222e-05
Heightened Def Con from 1.30224e-05 to 1.30224e-05
Heightened Def Con from 1.30247e-05 to 1.30248e-05
Heightened Def Con from 1.30248e-05 to 1.30268e-05
Heightened Def Con from 1.30289e-05 to 1.30309e-05
Heightened Def Con from 1.30313e-05 to 1.30325e-05
Heightened Def Con from 1.30331e-05 to 1.30351e-05
Heightened Def Con from 1.30359e-05 to 1.3037e-05
Heightened Def Con from 1.30373e-05 to 1.30373e-05
Heightened Def Con from 1.30375e-05 to 1.30375e-05
Heightened Def Con from 1.30375e-05 to 1.30395e-05
Heightened Def Con from 1.30395e-05 to 1.30407e-05
Heightened Def Con from 1.3041e-05 to 1.30422e-05
Heightened Def Con from 1.30425e-05 to 1.30436e-05
Heightened Def Con from 1.30436e-05 to 1.30447e-05
Heightened Def Con from 1.30449e-05 to 1.30461e-05
Heightened Def Con from 1.30468e-05 to 1.30478e-05
Heightened Def Con from 1.30478e-05 to 1.3049e-05
Heightened Def Con from 1.30492e-05 to 1.30512e-05
Heightened Def Con from 1.30512e-05 to 1.30522e-05
Heightened Def Con from 1.30523e-05 to 1.30524e-05
Heightened Def Con from 1.30524e-05 to 1.30524e-05
Heightened Def Con from 1.30524e-05 to 1.30544e-05
Heightened Def Con from 1.30548e-05 to 1.30558e-05
Heightened Def Con from 1.30558e-05 to 1.30568e-05
Heightened Def Con from 1.30568e-05 to 1.30571e-05
Heightened Def Con from 1.30571e-05 to 1.30571e-05
Heightened Def Con from 1.30573e-05 to 1.30573e-05
Heightened Def Con from 1.30573e-05 to 1.30584e-05
Heightened Def Con from 1.30584e-05 to 1.30584e-05
Heightened Def Con from 1.30584e-05 to 1.30585e-05
Heightened Def Con from 1.30588e-05 to 1.30598e-05
Heightened Def Con from 1.30599e-05 to 1.30619e-05
Heightened Def Con from 1.30621e-05 to 1.30623e-05
Heightened Def Con from 1.30623e-05 to 1.30643e-05
Heightened Def Con from 1.30663e-05 to 1.30665e-05
Heightened Def Con from 1.30668e-05 to 1.30668e-05
Heightened Def Con from 1.30668e-05 to 1.30668e-05
Heightened Def Con from 1.30668e-05 +to 1.30688e-05
Heightened Def Con from 1.30692e-05 to 1.30694e-05
Heightened Def Con from 1.30697e-05 to 1.30707e-05
Heightened Def Con from 1.30707e-05 to 1.30718e-05
Heightened Def Con from 1.30718e-05 to 1.30728e-05
Heightened Def Con from 1.30728e-05 to 1.30728e-05
Heightened Def Con from 1.30728e-05 to 1.30731e-05
Heightened Def Con from 1.30735e-05 to 1.30736e-05
Heightened Def Con from 1.30739e-05 to 1.3074e-05
Heightened Def Con from 1.30741e-05 to 1.30743e-05
Heightened Def Con from 1.30743e-05 to 1.30754e-05
Heightened Def Con from 1.30758e-05 to 1.30768e-05
Heightened Def Con from 1.30768e-05 to 1.30768e-05
Heightened Def Con from 1.30768e-05 to 1.30768e-05
Heightened Def Con from 1.30768e-05 to 1.30788e-05
Heightened Def Con from 1.30791e-05 to 1.30802e-05
Heightened Def Con from 1.30802e-05 to 1.30822e-05
Heightened Def Con from 1.30829e-05 to 1.30839e-05
Heightened Def Con from 1.3084e-05 to 1.3085e-05
Heightened Def Con from 1.3085e-05 to 1.3087e-05
Heightened Def Con from 1.3087e-05 to 1.3088e-05
Heightened Def Con from 1.30914e-05 to 1.30934e-05
Heightened Def Con from 1.30978e-05 to 1.30998e-05
Heightened Def Con from 1.31026e-05 to 1.31027e-05
Heightened Def Con from 1.31029e-05 to 1.3103e-05
Heightened Def Con from 1.3103e-05 to 1.31032e-05
Heightened Def Con from 1.31032e-05 to 1.31052e-05
Heightened Def Con from 1.31089e-05 to 1.31089e-05
Heightened Def Con from 1.31091e-05 to 1.31091e-05
Heightened Def Con from 1.31091e-05 to 1.31111e-05
Heightened Def Con from 1.33734e-05 to 1.33735e-05
Heightened Def Con from 1.33735e-05 to 1.33755e-05
Heightened Def Con from 1.33758e-05 to 1.33758e-05
Heightened Def Con from 1.33758e-05 to 1.3376e-05
Heightened Def Con from 1.3376e-05 to 1.3376e-05
Heightened Def Con from 1.33761e-05 to 1.33761e-05
Heightened Def Con from 1.33761e-05 to 1.33771e-05
Heightened Def Con from 1.33771e-05 to 1.33771e-05
Heightened Def Con from 1.33771e-05 to 1.33781e-05
Heightened Def Con from 1.33781e-05 to 1.33791e-05
Heightened Def Con from 1.33791e-05 +to 1.33801e-05
Heightened Def Con from 1.33804e-05 to 1.33814e-05
Heightened Def Con from 1.33814e-05 to 1.33816e-05
Heightened Def Con from 1.33816e-05 to 1.33826e-05
Heightened Def Con from 1.33826e-05 to 1.33827e-05
Heightened Def Con from 1.33829e-05 to 1.3383e-05
Heightened Def Con from 1.3383e-05 to 1.33831e-05
Heightened Def Con from 1.33837e-05 to 1.33847e-05
Heightened Def Con from 1.33848e-05 to 1.33849e-05
Heightened Def Con from 1.33849e-05 to 1.33849e-05
Heightened Def Con from 1.3385e-05 to 1.3385e-05
Heightened Def Con from 1.3385e-05 to 1.33851e-05
Heightened Def Con from 1.33852e-05 to 1.33853e-05
Heightened Def Con from 1.33855e-05 to 1.33855e-05
Heightened Def Con from 1.33855e-05 to 1.33875e-05
Heightened Def Con from 1.3408e-05 to 1.3409e-05
Heightened Def Con from 1.3409e-05 to 1.3409e-05
Heightened Def Con from 1.3409e-05 to 1.3409e-05
Heightened Def Con from 1.34091e-05 to 1.34091e-05
Heightened Def Con from 1.34092e-05 to 1.34093e-05
Heightened Def Con from 1.34131e-05 to 1.34131e-05
Heightened Def Con from 1.34131e-05 to 1.34151e-05
Heightened Def Con from 1.34208e-05 to 1.34208e-05
Heightened Def Con from 1.3424e-05 to 1.3424e-05
Heightened Def Con from 1.34241e-05 to 1.34241e-05
Heightened Def Con from 1.34241e-05 to 1.34241e-05
Heightened Def Con from 1.34241e-05 to 1.34241e-05
Heightened Def Con from 1.34241e-05 to 1.34253e-05
Heightened Def Con from 1.34253e-05 to 1.34263e-05
Heightened Def Con from 1.34263e-05 to 1.34274e-05
Heightened Def Con from 1.34279e-05 to 1.34279e-05
Heightened Def Con from 1.34279e-05 +to 1.34289e-05
Heightened Def Con from 1.3445e-05 to 1.3446e-05
Heightened Def Con from 1.3446e-05 to 1.3446e-05
Heightened Def Con from 1.3446e-05 to 1.34463e-05
Heightened Def Con from 1.34464e-05 to 1.34474e-05
Heightened Def Con from 1.34474e-05 to 1.34484e-05
Heightened Def Con from 1.34484e-05 to 1.34484e-05
Heightened Def Con from 1.34485e-05 to 1.34486e-05
Heightened Def Con from 1.34487e-05 to 1.34487e-05
Heightened Def Con from 1.34487e-05 to 1.34489e-05
Heightened Def Con from 1.34494e-05 to 1.34496e-05
Heightened Def Con from 1.34496e-05 to 1.34498e-05
Heightened Def Con from 1.34502e-05 to 1.34503e-05
Heightened Def Con from 1.34503e-05 to 1.34503e-05
Heightened Def Con from 1.34505e-05 to 1.34525e-05
Heightened Def Con from 1.34525e-05 to 1.34525e-05
Heightened Def Con from 1.34525e-05 to 1.34536e-05
Heightened Def Con from 1.34537e-05 to 1.34537e-05
Heightened Def Con from 1.34537e-05 to 1.34557e-05
Heightened Def Con from 1.34557e-05 to 1.34557e-05
Heightened Def Con from 1.34557e-05 to 1.3456e-05
Heightened Def Con from 1.34567e-05 to 1.34587e-05
Heightened Def Con from 1.3459e-05 to 1.34591e-05
Heightened Def Con from 1.34596e-05 to 1.34616e-05
Heightened Def Con from 1.34624e-05 to 1.34644e-05
Heightened Def Con from 1.34648e-05 to 1.34668e-05
Heightened Def Con from 1.34706e-05 to 1.34726e-05
Heightened Def Con from 1.34748e-05 to 1.34749e-05
Heightened Def Con from 1.3475e-05 to 1.3475e-05
Heightened Def Con from 1.3475e-05 to 1.3477e-05
Heightened Def Con from 1.3483e-05 to 1.34831e-05
Heightened Def Con from 1.34831e-05 to 1.34832e-05
Heightened Def Con from 1.34832e-05 to 1.34834e-05
Heightened Def Con from 1.34842e-05 to 1.34853e-05
Heightened Def Con from 1.34853e-05 to 1.34864e-05
Heightened Def Con from 1.34875e-05 to 1.34895e-05
Heightened Def Con from 1.34915e-05 +to 1.34926e-05
Heightened Def Con from 1.34999e-05 to 1.34999e-05
Heightened Def Con from 1.35e-05 to 1.35e-05
Heightened Def Con from 1.35e-05 to 1.3502e-05
Heightened Def Con from 1.3504e-05 to 1.35042e-05
Heightened Def Con from 1.35042e-05 to 1.35043e-05
Heightened Def Con from 1.35043e-05 to 1.35063e-05
Heightened Def Con from 1.35123e-05 to 1.35134e-05
Heightened Def Con from 1.35137e-05 to 1.35138e-05
Heightened Def Con from 1.35138e-05 to 1.35158e-05
Heightened Def Con from 1.35222e-05 to 1.35232e-05
Heightened Def Con from 1.35232e-05 to 1.35242e-05
Heightened Def Con from 1.35242e-05 to 1.35242e-05
Heightened Def Con from 1.35242e-05 to 1.35245e-05
Heightened Def Con from 1.35248e-05 to 1.3525e-05
Heightened Def Con from 1.3525e-05 to 1.35251e-05
Heightened Def Con from 1.35253e-05 to 1.35263e-05
Heightened Def Con from 1.35263e-05 to 1.35273e-05
Heightened Def Con from 1.35273e-05 to 1.35276e-05
Heightened Def Con from 1.35279e-05 to 1.35299e-05
Heightened Def Con from 1.353e-05 to 1.3532e-05
Heightened Def Con from 1.35356e-05 to 1.35376e-05
Heightened Def Con from 1.35383e-05 to 1.35383e-05
Heightened Def Con from 1.35383e-05 to 1.35384e-05
Heightened Def Con from 1.35384e-05 to 1.35394e-05
Heightened Def Con from 1.35395e-05 to 1.35405e-05
Heightened Def Con from 1.35405e-05 to 1.35415e-05
Heightened Def Con from 1.35415e-05 to 1.35435e-05
Heightened Def Con from 1.35491e-05 to 1.35501e-05
Heightened Def Con from 1.35501e-05 to 1.35511e-05
Heightened Def Con from 1.35511e-05 to 1.35511e-05
Heightened Def Con from 1.35511e-05 to 1.35531e-05
Heightened Def Con from 1.35534e-05 to 1.35544e-05
Heightened Def Con from 1.35544e-05 to 1.35545e-05
Heightened Def Con from 1.35545e-05 to 1.35545e-05
Heightened Def Con from 1.35545e-05 to 1.35545e-05
Heightened Def Con from 1.35545e-05 to 1.35557e-05
Heightened Def Con from 1.3556e-05 to 1.3556e-05
Heightened Def Con from 1.3556e-05 to 1.3556e-05
Heightened Def Con from 1.3556e-05 to 1.35561e-05
Heightened Def Con from 1.35564e-05 to 1.35567e-05
Heightened Def Con from 1.35567e-05 to 1.35568e-05
Heightened Def Con from 1.35574e-05 to 1.35584e-05
Heightened Def Con from 1.35584e-05 to 1.35587e-05
Heightened Def Con from 1.35587e-05 to 1.35588e-05
Heightened Def Con from 1.35589e-05 +to 1.35589e-05
Heightened Def Con from 1.35589e-05 +to 1.35599e-05
Heightened Def Con from 1.35608e-05 to 1.35608e-05
Heightened Def Con from 1.35608e-05 to 1.35628e-05
Heightened Def Con from 1.35632e-05 to 1.35643e-05
Heightened Def Con from 1.35644e-05 to 1.35647e-05
Heightened Def Con from 1.35647e-05 to 1.35649e-05
Heightened Def Con from 1.35654e-05 to 1.35656e-05
Heightened Def Con from 1.35656e-05 to 1.35656e-05
Heightened Def Con from 1.35656e-05 to 1.35657e-05
Heightened Def Con from 1.35657e-05 to 1.35669e-05
Heightened Def Con from 1.35722e-05 to 1.35722e-05
Heightened Def Con from 1.35722e-05 to 1.35732e-05
Heightened Def Con from 1.35732e-05 to 1.35733e-05
Heightened Def Con from 1.35733e-05 to 1.35733e-05
Heightened Def Con from 1.35734e-05 to 1.35745e-05
Heightened Def Con from 1.35759e-05 to 1.35759e-05
Heightened Def Con from 1.35759e-05 to 1.35759e-05
Heightened Def Con from 1.35759e-05 to 1.35759e-05
Heightened Def Con from 1.35759e-05 to 1.35769e-05
Heightened Def Con from 1.35769e-05 to 1.35771e-05
Heightened Def Con from 1.35771e-05 to 1.35771e-05
Heightened Def Con from 1.35771e-05 to 1.35791e-05
Heightened Def Con from 1.35811e-05 to 1.35831e-05
Heightened Def Con from 1.35834e-05 to 1.35834e-05
Heightened Def Con from 1.35834e-05 to 1.35836e-05
Heightened Def Con from 1.35836e-05 to 1.35839e-05
Heightened Def Con from 1.35839e-05 to 1.3584e-05
Heightened Def Con from 1.3584e-05 to 1.35851e-05
Heightened Def Con from 1.35852e-05 to 1.35872e-05
Heightened Def Con from 1.35876e-05 to 1.35876e-05
Heightened Def Con from 1.35876e-05 to 1.35896e-05
Heightened Def Con from 1.35899e-05 to 1.35899e-05
Heightened Def Con from 1.359e-05 to 1.359e-05
Heightened Def Con from 1.359e-05 to 1.35901e-05
Heightened Def Con from 1.35922e-05 +to 1.35932e-05
Heightened Def Con from 1.35932e-05 to 1.35933e-05
Heightened Def Con from 1.35933e-05 to 1.35953e-05
Heightened Def Con from 1.36293e-05 to 1.36303e-05
Heightened Def Con from 1.36304e-05 to 1.36304e-05
Heightened Def Con from 1.36304e-05 to 1.36306e-05
Heightened Def Con from 1.36307e-05 to 1.36307e-05
Heightened Def Con from 1.36309e-05 to 1.36309e-05
Heightened Def Con from 1.36309e-05 to 1.36309e-05
Heightened Def Con from 1.36309e-05 to 1.36329e-05
Heightened Def Con from 1.36329e-05 to 1.36339e-05
Heightened Def Con from 1.36341e-05 to 1.36342e-05
Heightened Def Con from 1.36342e-05 to 1.36353e-05
Heightened Def Con from 1.36371e-05 to 1.36372e-05
Heightened Def Con from 1.36374e-05 to 1.36375e-05
Heightened Def Con from 1.36379e-05 to 1.36389e-05
Heightened Def Con from 1.36417e-05 to 1.36418e-05
Heightened Def Con from 1.36418e-05 to 1.36428e-05
Heightened Def Con from 1.36428e-05 to 1.3644e-05
Heightened Def Con from 1.36448e-05 to 1.3645e-05
Heightened Def Con from 1.36493e-05 to 1.36493e-05
Heightened Def Con from 1.36493e-05 to 1.36493e-05
Heightened Def Con from 1.36496e-05 to 1.36496e-05
Heightened Def Con from 1.36496e-05 to 1.36516e-05
Heightened Def Con from 1.36516e-05 to 1.36518e-05
Heightened Def Con from 1.36544e-05 to 1.36554e-05
Heightened Def Con from 1.36554e-05 to 1.36555e-05
Heightened Def Con from 1.36557e-05 to 1.36558e-05
Heightened Def Con from 1.36558e-05 to 1.36568e-05
Heightened Def Con from 1.36568e-05 to 1.3657e-05
Heightened Def Con from 1.3657e-05 to 1.36571e-05
Heightened Def Con from 1.36571e-05 to 1.36571e-05
Heightened Def Con from 1.36571e-05 to 1.36582e-05
Heightened Def Con from 1.39157e-05 to 1.39167e-05
Heightened Def Con from 1.3917e-05 to 1.3917e-05
Heightened Def Con from 1.3917e-05 to 1.3917e-05
Heightened Def Con from 1.3917e-05 to 1.3917e-05
Heightened Def Con from 1.3917e-05 to 1.39181e-05
Heightened Def Con from 1.39181e-05 to 1.39181e-05
Heightened Def Con from 1.39181e-05 to 1.39182e-05
Heightened Def Con from 1.39184e-05 to 1.39195e-05
Heightened Def Con from 1.39206e-05 to 1.39206e-05
Heightened Def Con from 1.39206e-05 to 1.39206e-05
Heightened Def Con from 1.39206e-05 to 1.39226e-05
Heightened Def Con from 1.39226e-05 to 1.39226e-05
Heightened Def Con from 1.39226e-05 to 1.39226e-05
Heightened Def Con from 1.39226e-05 to 1.39237e-05
Heightened Def Con from 1.3926e-05 to 1.3926e-05
Heightened Def Con from 1.3926e-05 to 1.3927e-05
Heightened Def Con from 1.3927e-05 +to 1.39272e-05
Heightened Def Con from 1.39274e-05 to 1.39275e-05
Heightened Def Con from 1.39275e-05 to 1.39277e-05
Heightened Def Con from 1.39279e-05 to 1.39279e-05
Heightened Def Con from 1.3928e-05 to 1.39281e-05
Heightened Def Con from 1.39282e-05 to 1.39282e-05
Heightened Def Con from 1.39282e-05 to 1.39285e-05
Heightened Def Con from 1.39285e-05 to 1.39288e-05
Heightened Def Con from 1.39288e-05 to 1.39291e-05
Heightened Def Con from 1.39293e-05 to 1.39313e-05
Heightened Def Con from 1.40013e-05 to 1.40025e-05
Heightened Def Con from 1.40025e-05 to 1.40045e-05
Heightened Def Con from 1.4007e-05 to 1.40071e-05
Heightened Def Con from 1.40074e-05 to 1.40074e-05
Heightened Def Con from 1.40074e-05 to 1.40075e-05
Heightened Def Con from 1.40075e-05 to 1.40075e-05
Heightened Def Con from 1.40075e-05 to 1.40085e-05
Heightened Def Con from 1.40085e-05 to 1.40085e-05
Heightened Def Con from 1.40085e-05 to 1.40105e-05
Heightened Def Con from 1.40111e-05 to 1.40122e-05
Heightened Def Con from 1.40123e-05 to 1.40123e-05
Heightened Def Con from 1.40123e-05 to 1.40135e-05
Heightened Def Con from 1.40152e-05 to 1.40155e-05
Heightened Def Con from 1.40162e-05 to 1.40164e-05
Heightened Def Con from 1.40164e-05 to 1.40175e-05
Heightened Def Con from 1.40179e-05 to 1.40199e-05
Heightened Def Con from 1.40199e-05 to 1.40199e-05
Heightened Def Con from 1.40199e-05 to 1.40202e-05
Heightened Def Con from 1.40204e-05 to 1.40224e-05
Heightened Def Con from 1.40245e-05 to 1.40247e-05
Heightened Def Con from 1.40247e-05 to 1.40249e-05
Heightened Def Con from 1.40249e-05 to 1.40259e-05
Heightened Def Con from 1.40259e-05 to 1.40261e-05
Heightened Def Con from 1.40262e-05 to 1.40263e-05
Heightened Def Con from 1.40263e-05 to 1.40283e-05
Heightened Def Con from 1.40286e-05 to 1.40287e-05
Heightened Def Con from 1.40287e-05 to 1.40307e-05
Heightened Def Con from 1.40311e-05 to 1.40312e-05
Heightened Def Con from 1.40312e-05 to 1.40313e-05
Heightened Def Con from 1.40313e-05 to 1.40325e-05
Heightened Def Con from 1.40408e-05 +to 1.40418e-05
Heightened Def Con from 1.40421e-05 to 1.40431e-05
Heightened Def Con from 1.40431e-05 to 1.40441e-05
Heightened Def Con from 1.40441e-05 to 1.40451e-05
Heightened Def Con from 1.40451e-05 to 1.40451e-05
Heightened Def Con from 1.40451e-05 to 1.40471e-05
Heightened Def Con from 1.40472e-05 to 1.40472e-05
Heightened Def Con from 1.40472e-05 to 1.40474e-05
Heightened Def Con from 1.40475e-05 to 1.40495e-05
Heightened Def Con from 1.40517e-05 to 1.40517e-05
Heightened Def Con from 1.40517e-05 to 1.40528e-05
Heightened Def Con from 1.40532e-05 to 1.40542e-05
Heightened Def Con from 1.40542e-05 to 1.40542e-05
Heightened Def Con from 1.40542e-05 to 1.40542e-05
Heightened Def Con from 1.40542e-05 to 1.40553e-05
Heightened Def Con from 1.40554e-05 to 1.40554e-05
Heightened Def Con from 1.40555e-05 to 1.40555e-05
Heightened Def Con from 1.40555e-05 to 1.40575e-05
Heightened Def Con from 1.40645e-05 to 1.40645e-05
Heightened Def Con from 1.40645e-05 to 1.40656e-05
Heightened Def Con from 1.40657e-05 to 1.40677e-05
Heightened Def Con from 1.40737e-05 to 1.40747e-05
Heightened Def Con from 1.40747e-05 to 1.40748e-05
Heightened Def Con from 1.40749e-05 to 1.40749e-05
Heightened Def Con from 1.40749e-05 to 1.40749e-05
Heightened Def Con from 1.40749e-05 to 1.40769e-05
Heightened Def Con from 1.40772e-05 to 1.40772e-05
Heightened Def Con from 1.40772e-05 to 1.40774e-05
Heightened Def Con from 1.40775e-05 to 1.40775e-05
Heightened Def Con from 1.40775e-05 to 1.40776e-05
Heightened Def Con from 1.40776e-05 to 1.40796e-05
Heightened Def Con from 1.408e-05 to 1.408e-05
Heightened Def Con from 1.408e-05 to 1.4082e-05
Heightened Def Con from 1.4082e-05 to 1.40832e-05
Heightened Def Con from 1.40833e-05 to 1.40833e-05
Heightened Def Con from 1.40834e-05 to 1.40834e-05
Heightened Def Con from 1.40834e-05 to 1.40844e-05
Heightened Def Con from 1.40844e-05 to 1.40845e-05
Heightened Def Con from 1.40848e-05 to 1.40868e-05
Heightened Def Con from 1.40888e-05 to 1.40908e-05
Heightened Def Con from 1.4091e-05 to 1.4091e-05
Heightened Def Con from 1.4091e-05 to 1.4091e-05
Heightened Def Con from 1.40912e-05 to 1.40922e-05
Heightened Def Con from 1.40922e-05 to 1.40923e-05
Heightened Def Con from 1.40923e-05 to 1.40943e-05
Heightened Def Con from 1.40943e-05 to 1.40944e-05
Heightened Def Con from 1.40944e-05 +to 1.40954e-05
Heightened Def Con from 1.40955e-05 to 1.40975e-05
Heightened Def Con from 1.40995e-05 to 1.41007e-05
Heightened Def Con from 1.41007e-05 to 1.41007e-05
Heightened Def Con from 1.41007e-05 to 1.4101e-05
Heightened Def Con from 1.4101e-05 to 1.4103e-05
Heightened Def Con from 1.4105e-05 to 1.41051e-05
Heightened Def Con from 1.41051e-05 to 1.41071e-05
Heightened Def Con from 1.41117e-05 to 1.41127e-05
Heightened Def Con from 1.41127e-05 to 1.4113e-05
Heightened Def Con from 1.41138e-05 to 1.4114e-05
Heightened Def Con from 1.41148e-05 +to 1.41148e-05
Heightened Def Con from 1.41148e-05 to 1.41159e-05
Heightened Def Con from 1.41161e-05 +to 1.41171e-05
Heightened Def Con from 1.41173e-05 to 1.41173e-05
Heightened Def Con from 1.41173e-05 to 1.41183e-05
Heightened Def Con from 1.41188e-05 to 1.4119e-05
Heightened Def Con from 1.41192e-05 to 1.41192e-05
Heightened Def Con from 1.41192e-05 to 1.41193e-05
Heightened Def Con from 1.41193e-05 to 1.41193e-05
Heightened Def Con from 1.41193e-05 to 1.41193e-05
Heightened Def Con from 1.41193e-05 to 1.41213e-05
Heightened Def Con from 1.41216e-05 to 1.41226e-05
Heightened Def Con from 1.41226e-05 to 1.41228e-05
Heightened Def Con from 1.41228e-05 to 1.41231e-05
Heightened Def Con from 1.41234e-05 to 1.41236e-05
Heightened Def Con from 1.41247e-05 to 1.41257e-05
Heightened Def Con from 1.41258e-05 to 1.41258e-05
Heightened Def Con from 1.4126e-05 to 1.4126e-05
Heightened Def Con from 1.4126e-05 to 1.41262e-05
Heightened Def Con from 1.41263e-05 to 1.41263e-05
Heightened Def Con from 1.41263e-05 to 1.41264e-05
Heightened Def Con from 1.41264e-05 to 1.41275e-05
Heightened Def Con from 1.41276e-05 to 1.41296e-05
Heightened Def Con from 1.41299e-05 to 1.41309e-05
Heightened Def Con from 1.41309e-05 to 1.41309e-05
Heightened Def Con from 1.41309e-05 to 1.41312e-05
Heightened Def Con from 1.41315e-05 to 1.41315e-05
Heightened Def Con from 1.41315e-05 to 1.41327e-05
Heightened Def Con from 1.41327e-05 to 1.41329e-05
Heightened Def Con from 1.41368e-05 to 1.41388e-05
Heightened Def Con from 1.41388e-05 to 1.41388e-05
Heightened Def Con from 1.41388e-05 to 1.4139e-05
Heightened Def Con from 1.4139e-05 to 1.414e-05
Heightened Def Con from 1.414e-05 to 1.41411e-05
Heightened Def Con from 1.4142e-05 to 1.41421e-05
Heightened Def Con from 1.41422e-05 to 1.41442e-05
Heightened Def Con from 1.41459e-05 to 1.41479e-05
Heightened Def Con from 1.41574e-05 to 1.41576e-05
Heightened Def Con from 1.41576e-05 to 1.41596e-05
Heightened Def Con from 1.41604e-05 to 1.41604e-05
Heightened Def Con from 1.41604e-05 to 1.41624e-05
Heightened Def Con from 1.41784e-05 to 1.41796e-05
Heightened Def Con from 1.41799e-05 to 1.41809e-05
Heightened Def Con from 1.4181e-05 to 1.4183e-05
Heightened Def Con from 1.41899e-05 to 1.41909e-05
Heightened Def Con from 1.41909e-05 to 1.41909e-05
Heightened Def Con from 1.4191e-05 to 1.41911e-05
Heightened Def Con from 1.41912e-05 to 1.41923e-05
Heightened Def Con from 1.41923e-05 to 1.41935e-05
Heightened Def Con from 1.41956e-05 to 1.41967e-05
Heightened Def Con from 1.4197e-05 to 1.41972e-05
Heightened Def Con from 1.41972e-05 to 1.41974e-05
Heightened Def Con from 1.41974e-05 to 1.41976e-05
Heightened Def Con from 1.41976e-05 to 1.41978e-05
Heightened Def Con from 1.41981e-05 to 1.41992e-05
Heightened Def Con from 1.41995e-05 to 1.42006e-05
Heightened Def Con from 1.42007e-05 to 1.42018e-05
Heightened Def Con from 1.42098e-05 to 1.42098e-05
Heightened Def Con from 1.42098e-05 to 1.42108e-05
Heightened Def Con from 1.42109e-05 to 1.42119e-05
Heightened Def Con from 1.4212e-05 to 1.4212e-05
Heightened Def Con from 1.4212e-05 to 1.4212e-05
Heightened Def Con from 1.4212e-05 to 1.42121e-05
Heightened Def Con from 1.42121e-05 to 1.42141e-05
Heightened Def Con from 1.42163e-05 to 1.42183e-05
Heightened Def Con from 1.42186e-05 to 1.42187e-05
Heightened Def Con from 1.42188e-05 to 1.42199e-05
Heightened Def Con from 1.42199e-05 to 1.422e-05
Heightened Def Con from 1.42255e-05 to 1.42257e-05
Heightened Def Con from 1.42258e-05 to 1.4226e-05
Heightened Def Con from 1.42272e-05 to 1.42275e-05
Heightened Def Con from 1.42275e-05 to 1.42275e-05
Heightened Def Con from 1.42275e-05 to 1.42277e-05
Heightened Def Con from 1.42278e-05 to 1.42279e-05
Heightened Def Con from 1.42279e-05 to 1.4229e-05
Heightened Def Con from 1.42292e-05 to 1.42304e-05
Heightened Def Con from 1.42304e-05 to 1.42306e-05
Heightened Def Con from 1.42331e-05 to 1.42333e-05
Heightened Def Con from 1.42333e-05 to 1.42344e-05
Heightened Def Con from 1.42344e-05 to 1.42344e-05
Heightened Def Con from 1.42344e-05 to 1.42344e-05
Heightened Def Con from 1.42344e-05 to 1.42346e-05
Heightened Def Con from 1.42346e-05 to 1.42348e-05
Heightened Def Con from 1.42352e-05 to 1.42352e-05
Heightened Def Con from 1.42352e-05 to 1.42352e-05
Heightened Def Con from 1.42352e-05 to 1.42362e-05
Heightened Def Con from 1.42362e-05 to 1.42362e-05
Heightened Def Con from 1.42362e-05 to 1.42373e-05
Heightened Def Con from 1.42376e-05 to 1.42396e-05
Heightened Def Con from 1.42451e-05 to 1.42452e-05
Heightened Def Con from 1.42453e-05 to 1.42453e-05
Heightened Def Con from 1.42453e-05 to 1.42454e-05
Heightened Def Con from 1.42456e-05 to 1.42456e-05
Heightened Def Con from 1.42456e-05 to 1.42468e-05
Heightened Def Con from 1.4247e-05 to 1.4247e-05
Heightened Def Con from 1.4247e-05 +to 1.4249e-05
Heightened Def Con from 1.4249e-05 to 1.4249e-05
Heightened Def Con from 1.4249e-05 to 1.4251e-05
Heightened Def Con from 1.4253e-05 to 1.42531e-05
Heightened Def Con from 1.42531e-05 to 1.42534e-05
Heightened Def Con from 1.42536e-05 to 1.42547e-05
Heightened Def Con from 1.42552e-05 to 1.42553e-05
Heightened Def Con from 1.42553e-05 to 1.42563e-05
Heightened Def Con from 1.42563e-05 to 1.42583e-05
Heightened Def Con from 1.42583e-05 to 1.42583e-05
Heightened Def Con from 1.42584e-05 to 1.42604e-05
Heightened Def Con from 1.42604e-05 to 1.42604e-05
Heightened Def Con from 1.42604e-05 to 1.42605e-05
Heightened Def Con from 1.42605e-05 to 1.42625e-05
Heightened Def Con from 1.42645e-05 to 1.42645e-05
Heightened Def Con from 1.42645e-05 to 1.42645e-05
Heightened Def Con from 1.42645e-05 to 1.42645e-05
Heightened Def Con from 1.42645e-05 to 1.42656e-05
Heightened Def Con from 1.42656e-05 to 1.42657e-05
Heightened Def Con from 1.42657e-05 to 1.4266e-05
Heightened Def Con from 1.42668e-05 to 1.42668e-05
Heightened Def Con from 1.42668e-05 to 1.4268e-05
Heightened Def Con from 1.42687e-05 to 1.4269e-05
Heightened Def Con from 1.42707e-05 to 1.42709e-05
Heightened Def Con from 1.42713e-05 to 1.42713e-05
Heightened Def Con from 1.42713e-05 to 1.42723e-05
Heightened Def Con from 1.42723e-05 to 1.42723e-05
Heightened Def Con from 1.42723e-05 to 1.42726e-05
Heightened Def Con from 1.42731e-05 to 1.42742e-05
Heightened Def Con from 1.42742e-05 to 1.42752e-05
Heightened Def Con from 1.42752e-05 to 1.42762e-05
Heightened Def Con from 1.42762e-05 to 1.42762e-05
Heightened Def Con from 1.42762e-05 to 1.42782e-05
Heightened Def Con from 1.4293e-05 to 1.42931e-05
Heightened Def Con from 1.42931e-05 to 1.42931e-05
Heightened Def Con from 1.42931e-05 to 1.42951e-05
Heightened Def Con from 1.42977e-05 to 1.42989e-05
Heightened Def Con from 1.42993e-05 to 1.42994e-05
Heightened Def Con from 1.42995e-05 to 1.42997e-05
Heightened Def Con from 1.43e-05 to 1.43e-05
Heightened Def Con from 1.43e-05 to 1.4301e-05
Heightened Def Con from 1.4301e-05 to 1.4303e-05
Heightened Def Con from 1.43109e-05 to 1.43111e-05
Heightened Def Con from 1.43111e-05 to 1.43111e-05
Heightened Def Con from 1.43111e-05 to 1.43111e-05
Heightened Def Con from 1.43111e-05 to 1.43131e-05
Heightened Def Con from 1.43157e-05 to 1.43157e-05
Heightened Def Con from 1.43158e-05 to 1.43178e-05
Heightened Def Con from 1.43268e-05 to 1.43268e-05
Heightened Def Con from 1.43268e-05 to 1.43269e-05
Heightened Def Con from 1.43272e-05 to 1.43272e-05
Heightened Def Con from 1.43272e-05 to 1.43272e-05
Heightened Def Con from 1.43273e-05 to 1.43273e-05
Heightened Def Con from 1.43273e-05 to 1.43285e-05
Heightened Def Con from 1.43285e-05 to 1.43285e-05
Heightened Def Con from 1.43285e-05 to 1.43296e-05
Heightened Def Con from 1.43299e-05 to 1.43309e-05
Heightened Def Con from 1.43309e-05 to 1.4331e-05
Heightened Def Con from 1.4331e-05 to 1.4331e-05
Heightened Def Con from 1.4331e-05 to 1.43311e-05
Heightened Def Con from 1.43311e-05 to 1.43331e-05
Heightened Def Con from 1.43344e-05 to 1.43344e-05
Heightened Def Con from 1.43344e-05 to 1.43346e-05
Heightened Def Con from 1.43347e-05 to 1.4335e-05
Heightened Def Con from 1.43352e-05 to 1.43354e-05
Heightened Def Con from 1.43354e-05 to 1.43374e-05
Heightened Def Con from 1.43374e-05 to 1.43384e-05
Heightened Def Con from 1.43384e-05 to 1.43387e-05
Heightened Def Con from 1.43387e-05 to 1.43388e-05
Heightened Def Con from 1.43388e-05 to 1.43398e-05
Heightened Def Con from 1.43398e-05 to 1.43398e-05
Heightened Def Con from 1.43408e-05 to 1.4341e-05
Heightened Def Con from 1.4341e-05 to 1.43411e-05
Heightened Def Con from 1.43411e-05 to 1.43411e-05
Heightened Def Con from 1.43411e-05 to 1.43431e-05
Heightened Def Con from 1.43452e-05 to 1.43452e-05
Heightened Def Con from 1.43452e-05 to 1.43462e-05
Heightened Def Con from 1.43462e-05 to 1.43464e-05
Heightened Def Con from 1.43464e-05 to 1.43475e-05
Heightened Def Con from 1.43495e-05 to 1.43515e-05
Heightened Def Con from 1.43518e-05 to 1.43518e-05
Heightened Def Con from 1.43518e-05 to 1.43519e-05
Heightened Def Con from 1.4352e-05 to 1.4354e-05
Heightened Def Con from 1.43549e-05 to 1.43549e-05
Heightened Def Con from 1.43549e-05 to 1.43549e-05
Heightened Def Con from 1.4355e-05 to 1.43551e-05
Heightened Def Con from 1.43551e-05 +to 1.43561e-05
Heightened Def Con from 1.43561e-05 to 1.43573e-05
Heightened Def Con from 1.43782e-05 to 1.43792e-05
Heightened Def Con from 1.43792e-05 to 1.43793e-05
Heightened Def Con from 1.43793e-05 to 1.43803e-05
Heightened Def Con from 1.43803e-05 to 1.43814e-05
Heightened Def Con from 1.43832e-05 to 1.43832e-05
Heightened Def Con from 1.43832e-05 to 1.43852e-05
Heightened Def Con from 1.43852e-05 to 1.43852e-05
Heightened Def Con from 1.43852e-05 +to 1.43862e-05
Heightened Def Con from 1.43871e-05 to 1.43872e-05
Heightened Def Con from 1.43873e-05 to 1.43873e-05
Heightened Def Con from 1.43873e-05 to 1.43893e-05
Heightened Def Con from 1.43893e-05 to 1.43913e-05
Heightened Def Con from 1.4394e-05 to 1.43951e-05
Heightened Def Con from 1.43953e-05 to 1.43954e-05
Heightened Def Con from 1.43954e-05 to 1.43955e-05
Heightened Def Con from 1.43959e-05 to 1.43969e-05
Heightened Def Con from 1.43969e-05 to 1.43989e-05
Heightened Def Con from 1.43997e-05 to 1.43997e-05
Heightened Def Con from 1.43997e-05 to 1.44007e-05
Heightened Def Con from 1.44007e-05 to 1.44007e-05
Heightened Def Con from 1.44007e-05 to 1.44007e-05
Heightened Def Con from 1.44007e-05 to 1.44027e-05
Heightened Def Con from 1.44047e-05 to 1.44047e-05
Heightened Def Con from 1.44047e-05 to 1.44067e-05
Heightened Def Con from 1.44093e-05 to 1.44093e-05
Heightened Def Con from 1.44093e-05 to 1.44103e-05
Heightened Def Con from 1.44104e-05 to 1.44105e-05
Heightened Def Con from 1.44106e-05 to 1.44108e-05
Heightened Def Con from 1.44108e-05 to 1.44128e-05
Heightened Def Con from 1.44137e-05 to 1.44137e-05
Heightened Def Con from 1.44137e-05 to 1.44149e-05
Heightened Def Con from 1.44153e-05 to 1.44163e-05
Heightened Def Con from 1.44163e-05 to 1.44183e-05
Heightened Def Con from 1.44183e-05 to 1.44183e-05
Heightened Def Con from 1.44183e-05 to 1.44186e-05
Heightened Def Con from 1.44186e-05 to 1.44186e-05
Heightened Def Con from 1.44186e-05 to 1.44186e-05
Heightened Def Con from 1.44186e-05 to 1.44186e-05
Heightened Def Con from 1.44186e-05 to 1.44197e-05
Heightened Def Con from 1.44201e-05 to 1.44201e-05
Heightened Def Con from 1.44201e-05 to 1.44201e-05
Heightened Def Con from 1.44202e-05 to 1.44212e-05
Heightened Def Con from 1.44214e-05 to 1.44224e-05
Heightened Def Con from 1.44226e-05 to 1.44246e-05
Heightened Def Con from 1.44246e-05 to 1.44256e-05
Heightened Def Con from 1.44256e-05 to 1.44266e-05
Heightened Def Con from 1.44268e-05 to 1.44279e-05
Heightened Def Con from 1.44291e-05 to 1.44311e-05
Heightened Def Con from 1.44311e-05 to 1.44311e-05
Heightened Def Con from 1.44311e-05 to 1.44311e-05
Heightened Def Con from 1.44311e-05 to 1.44314e-05
Heightened Def Con from 1.44315e-05 +to 1.44325e-05
Heightened Def Con from 1.44331e-05 to 1.44332e-05
Heightened Def Con from 1.44332e-05 to 1.44343e-05
Heightened Def Con from 1.44344e-05 to 1.44344e-05
Heightened Def Con from 1.44344e-05 to 1.44355e-05
Heightened Def Con from 1.44358e-05 to 1.4436e-05
Heightened Def Con from 1.4436e-05 to 1.44371e-05
Heightened Def Con from 1.44371e-05 to 1.44371e-05
Heightened Def Con from 1.44373e-05 to 1.44383e-05
Heightened Def Con from 1.44383e-05 to 1.44384e-05
Heightened Def Con from 1.44384e-05 to 1.44385e-05
Heightened Def Con from 1.44385e-05 to 1.44395e-05
Heightened Def Con from 1.44398e-05 to 1.44399e-05
Heightened Def Con from 1.44399e-05 to 1.44409e-05
Heightened Def Con from 1.44409e-05 to 1.44429e-05
Heightened Def Con from 1.44502e-05 to 1.44522e-05
Heightened Def Con from 1.44583e-05 to 1.44583e-05
Heightened Def Con from 1.44583e-05 to 1.44593e-05
Heightened Def Con from 1.44595e-05 to 1.44596e-05
Heightened Def Con from 1.44596e-05 to 1.44599e-05
Heightened Def Con from 1.44599e-05 to 1.4461e-05
Heightened Def Con from 1.44613e-05 to 1.44613e-05
Heightened Def Con from 1.44613e-05 to 1.44613e-05
Heightened Def Con from 1.44614e-05 to 1.44614e-05
Heightened Def Con from 1.44615e-05 to 1.44626e-05
Heightened Def Con from 1.44626e-05 +to 1.44628e-05
Heightened Def Con from 1.44628e-05 to 1.44628e-05
Heightened Def Con from 1.44631e-05 to 1.44633e-05
Heightened Def Con from 1.44721e-05 to 1.44721e-05
Heightened Def Con from 1.44721e-05 +to 1.44731e-05
Heightened Def Con from 1.44752e-05 to 1.44772e-05
Heightened Def Con from 1.44772e-05 to 1.44792e-05
Heightened Def Con from 1.44825e-05 to 1.44827e-05
Heightened Def Con from 1.44827e-05 to 1.44828e-05
Heightened Def Con from 1.44828e-05 to 1.44838e-05
Heightened Def Con from 1.44839e-05 to 1.4485e-05
Heightened Def Con from 1.4486e-05 to 1.44862e-05
Heightened Def Con from 1.44864e-05 to 1.44865e-05
Heightened Def Con from 1.44868e-05 to 1.44878e-05
Heightened Def Con from 1.44878e-05 to 1.44879e-05
Heightened Def Con from 1.44879e-05 to 1.4488e-05
Heightened Def Con from 1.4488e-05 to 1.44883e-05
Heightened Def Con from 1.44883e-05 to 1.44883e-05
Heightened Def Con from 1.44883e-05 to 1.44894e-05
Heightened Def Con from 1.44897e-05 to 1.44897e-05
Heightened Def Con from 1.44897e-05 to 1.449e-05
Heightened Def Con from 1.449e-05 to 1.449e-05
Heightened Def Con from 1.449e-05 to 1.44901e-05
Heightened Def Con from 1.44901e-05 to 1.44901e-05
Heightened Def Con from 1.44901e-05 +to 1.44911e-05
Heightened Def Con from 1.44912e-05 to 1.44932e-05
Heightened Def Con from 1.44993e-05 to 1.44993e-05
Heightened Def Con from 1.44994e-05 to 1.44994e-05
Heightened Def Con from 1.44994e-05 to 1.45005e-05
Heightened Def Con from 1.45005e-05 to 1.45008e-05
Heightened Def Con from 1.45019e-05 to 1.45039e-05
Heightened Def Con from 1.45111e-05 to 1.45111e-05
Heightened Def Con from 1.45111e-05 to 1.45123e-05
Heightened Def Con from 1.45125e-05 to 1.45127e-05
Heightened Def Con from 1.45127e-05 to 1.45129e-05
Heightened Def Con from 1.4513e-05 to 1.45141e-05
Heightened Def Con from 1.45145e-05 to 1.45156e-05
Heightened Def Con from 1.45156e-05 to 1.45157e-05
Heightened Def Con from 1.45165e-05 to 1.45176e-05
Heightened Def Con from 1.45184e-05 to 1.45187e-05
Heightened Def Con from 1.45187e-05 to 1.45198e-05
Heightened Def Con from 1.45245e-05 to 1.45245e-05
Heightened Def Con from 1.45245e-05 to 1.45265e-05
Heightened Def Con from 1.45273e-05 to 1.45284e-05
Heightened Def Con from 1.45306e-05 to 1.45309e-05
Heightened Def Con from 1.45309e-05 to 1.45329e-05
Heightened Def Con from 1.45329e-05 to 1.4534e-05
Heightened Def Con from 1.4534e-05 to 1.4536e-05
Heightened Def Con from 1.45501e-05 to 1.45511e-05
Heightened Def Con from 1.45511e-05 to 1.45512e-05
Heightened Def Con from 1.45512e-05 to 1.45523e-05
Heightened Def Con from 1.45533e-05 to 1.45534e-05
Heightened Def Con from 1.45534e-05 to 1.45545e-05
Heightened Def Con from 1.45545e-05 +to 1.45555e-05
Heightened Def Con from 1.45563e-05 to 1.45573e-05
Heightened Def Con from 1.45573e-05 to 1.45573e-05
Heightened Def Con from 1.45573e-05 to 1.45593e-05
Heightened Def Con from 1.45593e-05 to 1.45595e-05
Heightened Def Con from 1.45595e-05 to 1.45615e-05
Heightened Def Con from 1.45635e-05 to 1.45635e-05
Heightened Def Con from 1.45635e-05 to 1.45655e-05
Heightened Def Con from 1.45733e-05 to 1.45733e-05
Heightened Def Con from 1.45733e-05 to 1.45733e-05
Heightened Def Con from 1.45734e-05 to 1.45745e-05
Heightened Def Con from 1.45745e-05 to 1.45765e-05
Heightened Def Con from 1.45765e-05 to 1.45767e-05
Heightened Def Con from 1.45787e-05 to 1.45797e-05
Heightened Def Con from 1.45797e-05 to 1.45807e-05
Heightened Def Con from 1.45807e-05 to 1.45827e-05
Heightened Def Con from 1.45887e-05 to 1.45887e-05
Heightened Def Con from 1.45887e-05 to 1.45887e-05
Heightened Def Con from 1.45887e-05 to 1.45897e-05
Heightened Def Con from 1.45897e-05 to 1.45917e-05
Heightened Def Con from 1.4592e-05 to 1.4594e-05
Heightened Def Con from 1.4601e-05 to 1.4603e-05
Heightened Def Con from 1.46056e-05 to 1.46057e-05
Heightened Def Con from 1.46058e-05 to 1.46078e-05
Heightened Def Con from 1.46419e-05 to 1.46429e-05
Heightened Def Con from 1.4643e-05 to 1.46432e-05
Heightened Def Con from 1.46432e-05 to 1.46432e-05
Heightened Def Con from 1.46432e-05 to 1.46432e-05
Heightened Def Con from 1.46432e-05 to 1.46432e-05
Heightened Def Con from 1.46432e-05 to 1.46434e-05
Heightened Def Con from 1.46434e-05 to 1.46434e-05
Heightened Def Con from 1.46435e-05 to 1.46435e-05
Heightened Def Con from 1.46435e-05 to 1.46445e-05
Heightened Def Con from 1.46445e-05 to 1.46456e-05
Heightened Def Con from 1.46456e-05 to 1.46456e-05
Heightened Def Con from 1.46457e-05 to 1.46477e-05
Heightened Def Con from 1.46497e-05 to 1.46499e-05
Heightened Def Con from 1.46509e-05 to 1.46519e-05
Heightened Def Con from 1.46519e-05 to 1.46519e-05
Heightened Def Con from 1.46519e-05 to 1.46539e-05
Heightened Def Con from 1.46547e-05 to 1.46549e-05
Heightened Def Con from 1.46549e-05 to 1.46549e-05
Heightened Def Con from 1.46549e-05 to 1.46551e-05
Heightened Def Con from 1.46551e-05 to 1.46551e-05
Heightened Def Con from 1.46551e-05 to 1.46552e-05
Heightened Def Con from 1.46552e-05 to 1.46554e-05
Heightened Def Con from 1.46554e-05 to 1.46554e-05
Heightened Def Con from 1.46554e-05 to 1.46565e-05
Heightened Def Con from 1.46565e-05 to 1.46576e-05
Heightened Def Con from 1.46577e-05 to 1.46577e-05
Heightened Def Con from 1.46577e-05 +to 1.46579e-05
Heightened Def Con from 1.46579e-05 to 1.4659e-05
Heightened Def Con from 1.4659e-05 to 1.46601e-05
Heightened Def Con from 1.46604e-05 to 1.46624e-05
Heightened Def Con from 1.46655e-05 to 1.46665e-05
Heightened Def Con from 1.46665e-05 to 1.46675e-05
Heightened Def Con from 1.46675e-05 to 1.46675e-05
Heightened Def Con from 1.46675e-05 +to 1.46695e-05
Heightened Def Con from 1.46708e-05 to 1.46709e-05
Heightened Def Con from 1.46709e-05 to 1.46729e-05
Heightened Def Con from 1.4673e-05 to 1.4673e-05
Heightened Def Con from 1.4673e-05 to 1.4673e-05
Heightened Def Con from 1.4673e-05 to 1.4674e-05
Heightened Def Con from 1.4674e-05 to 1.4675e-05
Heightened Def Con from 1.4675e-05 to 1.4677e-05
Heightened Def Con from 1.4677e-05 to 1.4677e-05
Heightened Def Con from 1.46772e-05 to 1.46792e-05
Heightened Def Con from 1.46818e-05 to 1.46838e-05
Heightened Def Con from 1.46862e-05 to 1.46873e-05
Heightened Def Con from 1.46873e-05 to 1.46874e-05
Heightened Def Con from 1.46874e-05 to 1.46876e-05
Heightened Def Con from 1.4688e-05 to 1.46891e-05
Heightened Def Con from 1.469e-05 to 1.4691e-05
Heightened Def Con from 1.4691e-05 to 1.4691e-05
Heightened Def Con from 1.46911e-05 to 1.46931e-05
Heightened Def Con from 1.46939e-05 to 1.46939e-05
Heightened Def Con from 1.46939e-05 to 1.46951e-05
Heightened Def Con from 1.46962e-05 to 1.46973e-05
Heightened Def Con from 1.46976e-05 to 1.46987e-05
Heightened Def Con from 1.4699e-05 to 1.46992e-05
Heightened Def Con from 1.46992e-05 to 1.47002e-05
Heightened Def Con from 1.47003e-05 to 1.47003e-05
Heightened Def Con from 1.47003e-05 to 1.47023e-05
Heightened Def Con from 1.47026e-05 to 1.47027e-05
Heightened Def Con from 1.47027e-05 to 1.47027e-05
Heightened Def Con from 1.47027e-05 to 1.47047e-05
Heightened Def Con from 1.47048e-05 to 1.47058e-05
Heightened Def Con from 1.47061e-05 to 1.47061e-05
Heightened Def Con from 1.47062e-05 to 1.47072e-05
Heightened Def Con from 1.47072e-05 to 1.47082e-05
Heightened Def Con from 1.47082e-05 to 1.47093e-05
Heightened Def Con from 1.47093e-05 to 1.47093e-05
Heightened Def Con from 1.47093e-05 to 1.47093e-05
Heightened Def Con from 1.47093e-05 to 1.47113e-05
Heightened Def Con from 1.47133e-05 to 1.47134e-05
Heightened Def Con from 1.47136e-05 to 1.47137e-05
Heightened Def Con from 1.47148e-05 +to 1.47148e-05
Heightened Def Con from 1.47148e-05 to 1.47168e-05
Heightened Def Con from 1.47169e-05 to 1.47179e-05
Heightened Def Con from 1.47185e-05 to 1.47185e-05
Heightened Def Con from 1.47186e-05 to 1.47186e-05
Heightened Def Con from 1.47186e-05 to 1.47186e-05
Heightened Def Con from 1.47186e-05 to 1.47186e-05
Heightened Def Con from 1.47186e-05 +to 1.47186e-05
Heightened Def Con from 1.47186e-05 to 1.47206e-05
Heightened Def Con from 1.47207e-05 to 1.47208e-05
Heightened Def Con from 1.47211e-05 to 1.47211e-05
Heightened Def Con from 1.47211e-05 to 1.47221e-05
Heightened Def Con from 1.47221e-05 to 1.47231e-05
Heightened Def Con from 1.47231e-05 to 1.47243e-05
Heightened Def Con from 1.4725e-05 +to 1.4725e-05
Heightened Def Con from 1.4725e-05 to 1.47261e-05
Heightened Def Con from 1.47261e-05 to 1.47271e-05
Heightened Def Con from 1.47271e-05 to 1.47272e-05
Heightened Def Con from 1.47272e-05 to 1.47272e-05
Heightened Def Con from 1.47272e-05 to 1.47275e-05
Heightened Def Con from 1.47275e-05 to 1.47277e-05
Heightened Def Con from 1.47277e-05 to 1.47278e-05
Heightened Def Con from 1.47278e-05 to 1.47288e-05
Heightened Def Con from 1.47289e-05 to 1.47299e-05
Heightened Def Con from 1.47299e-05 to 1.47299e-05
Heightened Def Con from 1.47299e-05 to 1.47301e-05
Heightened Def Con from 1.47304e-05 to 1.47305e-05
Heightened Def Con from 1.47305e-05 to 1.47315e-05
Heightened Def Con from 1.47315e-05 to 1.47325e-05
Heightened Def Con from 1.47325e-05 to 1.47328e-05
Heightened Def Con from 1.47328e-05 to 1.47331e-05
Heightened Def Con from 1.47331e-05 to 1.47332e-05
Heightened Def Con from 1.47335e-05 to 1.47345e-05
Heightened Def Con from 1.47345e-05 to 1.47356e-05
Heightened Def Con from 1.47356e-05 to 1.47356e-05
Heightened Def Con from 1.47356e-05 to 1.47356e-05
Heightened Def Con from 1.47356e-05 to 1.47376e-05
Heightened Def Con from 1.47376e-05 to 1.47377e-05
Heightened Def Con from 1.47378e-05 to 1.47378e-05
Heightened Def Con from 1.47378e-05 to 1.47378e-05
Heightened Def Con from 1.47378e-05 to 1.47389e-05
Heightened Def Con from 1.47392e-05 to 1.47392e-05
Heightened Def Con from 1.47392e-05 to 1.47394e-05
Heightened Def Con from 1.47397e-05 to 1.47407e-05
Heightened Def Con from 1.47407e-05 to 1.47427e-05
Heightened Def Con from 1.47507e-05 to 1.47507e-05
Heightened Def Con from 1.47507e-05 to 1.47507e-05
Heightened Def Con from 1.4751e-05 to 1.4753e-05
Heightened Def Con from 1.4759e-05 to 1.47591e-05
Heightened Def Con from 1.47594e-05 to 1.47604e-05
Heightened Def Con from 1.47604e-05 to 1.47624e-05
Heightened Def Con from 1.47625e-05 to 1.47635e-05
Heightened Def Con from 1.47653e-05 to 1.47655e-05
Heightened Def Con from 1.47655e-05 to 1.47656e-05
Heightened Def Con from 1.47656e-05 to 1.47676e-05
Heightened Def Con from 1.47702e-05 to 1.47713e-05
Heightened Def Con from 1.47713e-05 to 1.47723e-05
Heightened Def Con from 1.47723e-05 to 1.47724e-05
Heightened Def Con from 1.47724e-05 to 1.47724e-05
Heightened Def Con from 1.47726e-05 to 1.47729e-05
Heightened Def Con from 1.47773e-05 to 1.47774e-05
Heightened Def Con from 1.47774e-05 to 1.47784e-05
Heightened Def Con from 1.47784e-05 to 1.47785e-05
Heightened Def Con from 1.47785e-05 to 1.47795e-05
Heightened Def Con from 1.47795e-05 to 1.47796e-05
Heightened Def Con from 1.47796e-05 to 1.47806e-05
Heightened Def Con from 1.47806e-05 to 1.47806e-05
Heightened Def Con from 1.47807e-05 to 1.47827e-05
Heightened Def Con from 1.47904e-05 to 1.47914e-05
Heightened Def Con from 1.47915e-05 to 1.47935e-05
Heightened Def Con from 1.47935e-05 to 1.47946e-05
Heightened Def Con from 1.47946e-05 to 1.47946e-05
Heightened Def Con from 1.47946e-05 to 1.47947e-05
Heightened Def Con from 1.47949e-05 to 1.47949e-05
Heightened Def Con from 1.47949e-05 to 1.47949e-05
Heightened Def Con from 1.47949e-05 to 1.47949e-05
Heightened Def Con from 1.4795e-05 to 1.4795e-05
Heightened Def Con from 1.47951e-05 to 1.47971e-05
Heightened Def Con from 1.48062e-05 to 1.48062e-05
Heightened Def Con from 1.48062e-05 to 1.48072e-05
Heightened Def Con from 1.48072e-05 to 1.48072e-05
Heightened Def Con from 1.48075e-05 +to 1.48086e-05
Heightened Def Con from 1.48156e-05 to 1.48176e-05
Heightened Def Con from 1.48196e-05 to 1.48199e-05
Heightened Def Con from 1.48201e-05 to 1.48213e-05
Heightened Def Con from 1.48214e-05 to 1.48216e-05
Heightened Def Con from 1.48216e-05 to 1.48236e-05
Heightened Def Con from 1.48236e-05 to 1.48246e-05
Heightened Def Con from 1.48246e-05 to 1.48247e-05
Heightened Def Con from 1.48248e-05 to 1.48268e-05
Heightened Def Con from 1.48297e-05 to 1.48307e-05
Heightened Def Con from 1.48307e-05 to 1.48319e-05
Heightened Def Con from 1.48321e-05 +to 1.48331e-05
Heightened Def Con from 1.48331e-05 to 1.48332e-05
Heightened Def Con from 1.48333e-05 to 1.48344e-05
Heightened Def Con from 1.48344e-05 +to 1.48355e-05
Heightened Def Con from 1.48355e-05 to 1.48355e-05
Heightened Def Con from 1.48355e-05 to 1.48357e-05
Heightened Def Con from 1.48357e-05 to 1.48368e-05
Heightened Def Con from 1.4837e-05 to 1.4839e-05
Heightened Def Con from 1.48412e-05 to 1.48412e-05
Heightened Def Con from 1.48412e-05 to 1.48422e-05
Heightened Def Con from 1.48425e-05 to 1.48425e-05
Heightened Def Con from 1.48426e-05 to 1.48436e-05
Heightened Def Con from 1.48437e-05 to 1.48457e-05
Heightened Def Con from 1.48601e-05 to 1.48621e-05
Heightened Def Con from 1.48621e-05 to 1.48621e-05
Heightened Def Con from 1.48621e-05 to 1.48622e-05
Heightened Def Con from 1.48622e-05 to 1.48634e-05
Heightened Def Con from 1.48634e-05 to 1.48644e-05
Heightened Def Con from 1.48645e-05 to 1.48646e-05
Heightened Def Con from 1.48646e-05 to 1.48646e-05
Heightened Def Con from 1.48646e-05 to 1.48656e-05
Heightened Def Con from 1.48656e-05 to 1.48666e-05
Heightened Def Con from 1.48667e-05 to 1.48667e-05
Heightened Def Con from 1.48667e-05 to 1.48667e-05
Heightened Def Con from 1.48667e-05 to 1.48669e-05
Heightened Def Con from 1.48674e-05 to 1.48694e-05
Heightened Def Con from 1.48898e-05 to 1.48898e-05
Heightened Def Con from 1.48898e-05 to 1.48918e-05
Heightened Def Con from 1.48918e-05 to 1.48918e-05
Heightened Def Con from 1.48919e-05 to 1.48939e-05
Heightened Def Con from 1.48939e-05 to 1.48942e-05
Heightened Def Con from 1.48945e-05 to 1.48945e-05
Heightened Def Con from 1.48945e-05 to 1.48945e-05
Heightened Def Con from 1.48945e-05 to 1.48946e-05
Heightened Def Con from 1.48946e-05 +to 1.48958e-05
Heightened Def Con from 1.49e-05 to 1.49e-05
Heightened Def Con from 1.49e-05 +to 1.4901e-05
Heightened Def Con from 1.4903e-05 to 1.4905e-05
Heightened Def Con from 1.4905e-05 to 1.4907e-05
Heightened Def Con from 1.4913e-05 to 1.49142e-05
Heightened Def Con from 1.49142e-05 to 1.49153e-05
Heightened Def Con from 1.49153e-05 to 1.49153e-05
Heightened Def Con from 1.49153e-05 to 1.49155e-05
Heightened Def Con from 1.49155e-05 to 1.49155e-05
Heightened Def Con from 1.49155e-05 to 1.49157e-05
Heightened Def Con from 1.4916e-05 to 1.4918e-05
Heightened Def Con from 1.49184e-05 to 1.49187e-05
Heightened Def Con from 1.49226e-05 to 1.49237e-05
Heightened Def Con from 1.49237e-05 to 1.49237e-05
Heightened Def Con from 1.49238e-05 to 1.49239e-05
Heightened Def Con from 1.49239e-05 +to 1.4925e-05
Heightened Def Con from 1.49268e-05 to 1.49288e-05
Heightened Def Con from 1.49326e-05 to 1.49326e-05
Heightened Def Con from 1.49326e-05 to 1.49337e-05
Heightened Def Con from 1.4934e-05 to 1.4935e-05
Heightened Def Con from 1.4935e-05 to 1.49351e-05
Heightened Def Con from 1.49354e-05 to 1.49374e-05
Heightened Def Con from 1.49374e-05 to 1.49374e-05
Heightened Def Con from 1.49375e-05 to 1.49386e-05
Heightened Def Con from 1.49389e-05 to 1.49389e-05
Heightened Def Con from 1.49389e-05 to 1.49389e-05
Heightened Def Con from 1.49389e-05 to 1.49389e-05
Heightened Def Con from 1.49394e-05 to 1.49396e-05
Heightened Def Con from 1.49397e-05 to 1.49398e-05
Heightened Def Con from 1.49422e-05 to 1.49432e-05
Heightened Def Con from 1.49432e-05 to 1.49432e-05
Heightened Def Con from 1.49432e-05 to 1.49452e-05
Heightened Def Con from 1.49454e-05 to 1.49466e-05
Heightened Def Con from 1.49466e-05 to 1.49486e-05
Heightened Def Con from 1.49512e-05 to 1.49512e-05
Heightened Def Con from 1.49514e-05 to 1.49514e-05
Heightened Def Con from 1.49514e-05 to 1.49516e-05
Heightened Def Con from 1.49516e-05 to 1.49526e-05
Heightened Def Con from 1.49526e-05 to 1.49528e-05
Heightened Def Con from 1.4953e-05 to 1.4954e-05
Heightened Def Con from 1.4954e-05 to 1.4954e-05
Heightened Def Con from 1.4954e-05 to 1.4956e-05
Heightened Def Con from 1.49561e-05 to 1.49581e-05
Heightened Def Con from 1.49581e-05 to 1.49581e-05
Heightened Def Con from 1.49582e-05 to 1.49594e-05
Heightened Def Con from 1.49594e-05 to 1.49596e-05
Heightened Def Con from 1.49596e-05 to 1.49596e-05
Heightened Def Con from 1.49596e-05 to 1.49596e-05
Heightened Def Con from 1.49597e-05 to 1.49597e-05
Heightened Def Con from 1.49597e-05 to 1.49598e-05
Heightened Def Con from 1.496e-05 to 1.496e-05
Heightened Def Con from 1.496e-05 to 1.49602e-05
Heightened Def Con from 1.49605e-05 to 1.49606e-05
Heightened Def Con from 1.49606e-05 to 1.49616e-05
Heightened Def Con from 1.49616e-05 to 1.49618e-05
Heightened Def Con from 1.49618e-05 to 1.49618e-05
Heightened Def Con from 1.49618e-05 to 1.49618e-05
Heightened Def Con from 1.49618e-05 to 1.49618e-05
Heightened Def Con from 1.49618e-05 to 1.49638e-05
Heightened Def Con from 1.49659e-05 to 1.49659e-05
Heightened Def Con from 1.49659e-05 to 1.49662e-05
Heightened Def Con from 1.49664e-05 to 1.49684e-05
Heightened Def Con from 1.49688e-05 to 1.49698e-05
Heightened Def Con from 1.49698e-05 to 1.49699e-05
Heightened Def Con from 1.49699e-05 to 1.49709e-05
Heightened Def Con from 1.49709e-05 to 1.49719e-05
Heightened Def Con from 1.49719e-05 to 1.49729e-05
Heightened Def Con from 1.49729e-05 to 1.49739e-05
Heightened Def Con from 1.49739e-05 to 1.49759e-05
Heightened Def Con from 1.49814e-05 to 1.49815e-05
Heightened Def Con from 1.49816e-05 to 1.49826e-05
Heightened Def Con from 1.49827e-05 to 1.49827e-05
Heightened Def Con from 1.49827e-05 to 1.49837e-05
Heightened Def Con from 1.49837e-05 to 1.49848e-05
Heightened Def Con from 1.49848e-05 to 1.49848e-05
Heightened Def Con from 1.49848e-05 to 1.4985e-05
Heightened Def Con from 1.4985e-05 to 1.4986e-05
Heightened Def Con from 1.4986e-05 to 1.4986e-05
Heightened Def Con from 1.4986e-05 to 1.4988e-05
Heightened Def Con from 1.49906e-05 to 1.49926e-05
Heightened Def Con from 1.49986e-05 to 1.49986e-05
Heightened Def Con from 1.49986e-05 to 1.49988e-05
Heightened Def Con from 1.49991e-05 to 1.49993e-05
Heightened Def Con from 1.49994e-05 to 1.50014e-05
Heightened Def Con from 1.50016e-05 to 1.50016e-05
Heightened Def Con from 1.50016e-05 to 1.50019e-05
Heightened Def Con from 1.50019e-05 to 1.50039e-05
Heightened Def Con from 1.50039e-05 to 1.50039e-05
Heightened Def Con from 1.50039e-05 to 1.50051e-05
Heightened Def Con from 1.50051e-05 to 1.50052e-05
Heightened Def Con from 1.50052e-05 to 1.50054e-05
Heightened Def Con from 1.50058e-05 to 1.5006e-05
Heightened Def Con from 1.5006e-05 to 1.5006e-05
Heightened Def Con from 1.5006e-05 to 1.5006e-05
Heightened Def Con from 1.5006e-05 to 1.50061e-05
Heightened Def Con from 1.50062e-05 to 1.50072e-05
Heightened Def Con from 1.50072e-05 to 1.50074e-05
Heightened Def Con from 1.50075e-05 to 1.50075e-05
Heightened Def Con from 1.50075e-05 to 1.50075e-05
Heightened Def Con from 1.50075e-05 to 1.50077e-05
Heightened Def Con from 1.50077e-05 to 1.50097e-05
Heightened Def Con from 1.50098e-05 to 1.50118e-05
Heightened Def Con from 1.50138e-05 to 1.50149e-05
Heightened Def Con from 1.50152e-05 to 1.50152e-05
Heightened Def Con from 1.50152e-05 to 1.50153e-05
Heightened Def Con from 1.50153e-05 to 1.50156e-05
Heightened Def Con from 1.50157e-05 to 1.50177e-05
Heightened Def Con from 1.50198e-05 to 1.50198e-05
Heightened Def Con from 1.50199e-05 to 1.50199e-05
Heightened Def Con from 1.50199e-05 to 1.50211e-05
Heightened Def Con from 1.50211e-05 to 1.50231e-05
Heightened Def Con from 1.50235e-05 to 1.50255e-05
Heightened Def Con from 1.50275e-05 to 1.50285e-05
Heightened Def Con from 1.50286e-05 to 1.50296e-05
Heightened Def Con from 1.50296e-05 to 1.50306e-05
Heightened Def Con from 1.50306e-05 to 1.50326e-05
Heightened Def Con from 1.50326e-05 to 1.50327e-05
Heightened Def Con from 1.50327e-05 to 1.50338e-05
Heightened Def Con from 1.50339e-05 to 1.50339e-05
Heightened Def Con from 1.50339e-05 to 1.50359e-05
Heightened Def Con from 1.50359e-05 +to 1.50361e-05
Heightened Def Con from 1.50364e-05 to 1.50384e-05
Heightened Def Con from 1.50384e-05 to 1.50384e-05
Heightened Def Con from 1.50384e-05 to 1.50396e-05
Heightened Def Con from 1.50396e-05 to 1.50416e-05
Heightened Def Con from 1.50438e-05 to 1.50439e-05
Heightened Def Con from 1.50441e-05 to 1.50442e-05
Heightened Def Con from 1.50442e-05 +to 1.50462e-05
Heightened Def Con from 1.50522e-05 to 1.50542e-05
Heightened Def Con from 1.50542e-05 to 1.50562e-05
Heightened Def Con from 1.50587e-05 to 1.50597e-05
Heightened Def Con from 1.50597e-05 to 1.50597e-05
Heightened Def Con from 1.50598e-05 to 1.50598e-05
Heightened Def Con from 1.50598e-05 to 1.50598e-05
Heightened Def Con from 1.50598e-05 +to 1.50608e-05
Heightened Def Con from 1.50626e-05 to 1.50627e-05
Heightened Def Con from 1.50627e-05 to 1.50647e-05
Heightened Def Con from 1.50647e-05 to 1.50657e-05
Heightened Def Con from 1.50661e-05 to 1.50662e-05
Heightened Def Con from 1.50662e-05 to 1.50664e-05
Heightened Def Con from 1.50664e-05 to 1.50666e-05
Heightened Def Con from 1.50666e-05 to 1.50666e-05
Heightened Def Con from 1.50666e-05 to 1.50666e-05
Heightened Def Con from 1.50666e-05 to 1.50667e-05
Heightened Def Con from 1.50667e-05 to 1.50687e-05
Heightened Def Con from 1.50708e-05 +to 1.50719e-05
Heightened Def Con from 1.50721e-05 to 1.50741e-05
Heightened Def Con from 1.50801e-05 +to 1.50811e-05
Heightened Def Con from 1.50811e-05 to 1.50811e-05
Heightened Def Con from 1.50811e-05 to 1.50811e-05
Heightened Def Con from 1.50811e-05 to 1.50831e-05
Heightened Def Con from 1.51031e-05 to 1.51031e-05
Heightened Def Con from 1.51031e-05 to 1.51034e-05
Heightened Def Con from 1.51036e-05 to 1.51047e-05
Heightened Def Con from 1.51103e-05 to 1.51123e-05
Heightened Def Con from 1.51126e-05 to 1.51136e-05
Heightened Def Con from 1.51136e-05 to 1.51147e-05
Heightened Def Con from 1.51147e-05 to 1.51147e-05
Heightened Def Con from 1.5115e-05 to 1.51162e-05
Heightened Def Con from 1.51175e-05 to 1.51175e-05
Heightened Def Con from 1.51175e-05 to 1.51195e-05
Heightened Def Con from 1.51255e-05 to 1.51275e-05
Heightened Def Con from 1.51277e-05 to 1.51297e-05
Heightened Def Con from 1.51357e-05 to 1.51357e-05
Heightened Def Con from 1.51357e-05 to 1.51357e-05
Heightened Def Con from 1.51357e-05 to 1.51357e-05
Heightened Def Con from 1.51357e-05 to 1.51357e-05
Heightened Def Con from 1.51357e-05 to 1.51367e-05
Heightened Def Con from 1.51367e-05 to 1.51369e-05
Heightened Def Con from 1.51369e-05 to 1.51369e-05
Heightened Def Con from 1.51369e-05 to 1.51369e-05
Heightened Def Con from 1.51369e-05 to 1.51371e-05
Heightened Def Con from 1.51374e-05 to 1.51394e-05
Heightened Def Con from 1.51394e-05 to 1.51396e-05
Heightened Def Con from 1.51396e-05 to 1.51397e-05
Heightened Def Con from 1.51398e-05 to 1.51398e-05
Heightened Def Con from 1.51398e-05 to 1.514e-05
Heightened Def Con from 1.51401e-05 to 1.51402e-05
Heightened Def Con from 1.51402e-05 to 1.51402e-05
Heightened Def Con from 1.51402e-05 to 1.51405e-05
Heightened Def Con from 1.51405e-05 to 1.51415e-05
Heightened Def Con from 1.51415e-05 to 1.51417e-05
Heightened Def Con from 1.51417e-05 to 1.51419e-05
Heightened Def Con from 1.51419e-05 to 1.5143e-05
Heightened Def Con from 1.5143e-05 to 1.5145e-05
Heightened Def Con from 1.5146e-05 to 1.5146e-05
Heightened Def Con from 1.5146e-05 to 1.5146e-05
Heightened Def Con from 1.5146e-05 to 1.5146e-05
Heightened Def Con from 1.5146e-05 to 1.51463e-05
Heightened Def Con from 1.51463e-05 to 1.51463e-05
Heightened Def Con from 1.51463e-05 to 1.51463e-05
Heightened Def Con from 1.51463e-05 to 1.51474e-05
Heightened Def Con from 1.51474e-05 to 1.51476e-05
Heightened Def Con from 1.51479e-05 to 1.51499e-05
Heightened Def Con from 1.51519e-05 to 1.5152e-05
Heightened Def Con from 1.5152e-05 to 1.5152e-05
Heightened Def Con from 1.5152e-05 +to 1.5153e-05
Heightened Def Con from 1.51539e-05 to 1.5155e-05
Heightened Def Con from 1.5156e-05 to 1.51572e-05
Heightened Def Con from 1.51574e-05 to 1.51584e-05
Heightened Def Con from 1.51584e-05 to 1.51594e-05
Heightened Def Con from 1.51594e-05 to 1.51605e-05
Heightened Def Con from 1.51606e-05 to 1.51626e-05
Heightened Def Con from 1.52256e-05 to 1.52257e-05
Heightened Def Con from 1.52257e-05 to 1.52267e-05
Heightened Def Con from 1.52267e-05 to 1.52277e-05
Heightened Def Con from 1.52277e-05 to 1.52289e-05
Heightened Def Con from 1.5229e-05 to 1.5229e-05
Heightened Def Con from 1.5229e-05 to 1.52292e-05
Heightened Def Con from 1.52292e-05 to 1.52292e-05
Heightened Def Con from 1.52292e-05 to 1.52302e-05
Heightened Def Con from 1.52302e-05 to 1.52303e-05
Heightened Def Con from 1.52303e-05 to 1.52303e-05
Heightened Def Con from 1.52303e-05 to 1.52303e-05
Heightened Def Con from 1.52303e-05 to 1.52305e-05
Heightened Def Con from 1.52305e-05 to 1.52325e-05
Heightened Def Con from 1.52325e-05 to 1.52335e-05
Heightened Def Con from 1.52336e-05 to 1.52337e-05
Heightened Def Con from 1.52344e-05 to 1.52364e-05
Heightened Def Con from 1.52375e-05 to 1.52375e-05
Heightened Def Con from 1.52375e-05 to 1.52395e-05
Heightened Def Con from 1.52398e-05 to 1.524e-05
Heightened Def Con from 1.52401e-05 to 1.52403e-05
Heightened Def Con from 1.52403e-05 to 1.52403e-05
Heightened Def Con from 1.52403e-05 to 1.52413e-05
Heightened Def Con from 1.52413e-05 to 1.52413e-05
Heightened Def Con from 1.52413e-05 to 1.52414e-05
Heightened Def Con from 1.52418e-05 to 1.52438e-05
Heightened Def Con from 1.5244e-05 to 1.52443e-05
Heightened Def Con from 1.52463e-05 to 1.52473e-05
Heightened Def Con from 1.52473e-05 to 1.52493e-05
Heightened Def Con from 1.52513e-05 to 1.52514e-05
Heightened Def Con from 1.52514e-05 to 1.52524e-05
Heightened Def Con from 1.52524e-05 to 1.52525e-05
Heightened Def Con from 1.52525e-05 to 1.52528e-05
Heightened Def Con from 1.52557e-05 to 1.52558e-05
Heightened Def Con from 1.52558e-05 to 1.52559e-05
Heightened Def Con from 1.5256e-05 to 1.5256e-05
Heightened Def Con from 1.5256e-05 to 1.52561e-05
Heightened Def Con from 1.52561e-05 to 1.52561e-05
Heightened Def Con from 1.52561e-05 to 1.52562e-05
Heightened Def Con from 1.52565e-05 to 1.52575e-05
Heightened Def Con from 1.52575e-05 to 1.52577e-05
Heightened Def Con from 1.52578e-05 to 1.52579e-05
Heightened Def Con from 1.52579e-05 to 1.52599e-05
Heightened Def Con from 1.52607e-05 to 1.52608e-05
Heightened Def Con from 1.52608e-05 to 1.52619e-05
Heightened Def Con from 1.52659e-05 to 1.52669e-05
Heightened Def Con from 1.52669e-05 to 1.52689e-05
Heightened Def Con from 1.52701e-05 to 1.52713e-05
Heightened Def Con from 1.52713e-05 to 1.52733e-05
Heightened Def Con from 1.52733e-05 to 1.52733e-05
Heightened Def Con from 1.52733e-05 to 1.52743e-05
Heightened Def Con from 1.52743e-05 to 1.52754e-05
Heightened Def Con from 1.52754e-05 to 1.52757e-05
Heightened Def Con from 1.52757e-05 to 1.52777e-05
Heightened Def Con from 1.52777e-05 to 1.52797e-05
Heightened Def Con from 1.528e-05 to 1.528e-05
Heightened Def Con from 1.528e-05 to 1.52801e-05
Heightened Def Con from 1.52803e-05 to 1.52806e-05
Heightened Def Con from 1.52968e-05 to 1.52968e-05
Heightened Def Con from 1.52968e-05 to 1.52968e-05
Heightened Def Con from 1.52968e-05 to 1.52968e-05
Heightened Def Con from 1.52968e-05 to 1.52968e-05
Heightened Def Con from 1.52969e-05 to 1.5298e-05
Heightened Def Con from 1.52982e-05 to 1.52992e-05
Heightened Def Con from 1.52993e-05 to 1.53003e-05
Heightened Def Con from 1.53003e-05 to 1.53003e-05
Heightened Def Con from 1.53003e-05 to 1.53004e-05
Heightened Def Con from 1.53004e-05 to 1.53016e-05
[...]
Heightened Def Con from 2.21794e-05 to 2.21794e-05
Heightened Def Con from 2.21794e-05 to 2.21795e-05
Heightened Def Con from 2.21795e-05 to 2.21795e-05
Heightened Def Con from 2.21795e-05 to 2.21795e-05
Heightened Def Con from 2.21795e-05 to 2.21795e-05
Heightened Def Con from 2.21795e-05 to 2.21795e-05
Heightened Def Con from 2.21795e-05 to 2.21795e-05
Heightened Def Con from 2.21795e-05 to 2.21795e-05
Heightened Def Con from 2.21795e-05 to 2.21795e-05
Heightened Def Con from 2.21795e-05 to 2.21795e-05
Heightened Def Con from 2.21795e-05 to 2.21795e-05
Heightened Def Con from 2.21795e-05 to 2.21795e-05
Heightened Def Con from 2.21795e-05 to 2.21795e-05
Heightened Def Con from 2.21795e-05 to 2.21795e-05
Heightened Def Con from 2.21795e-05 to 2.21795e-05
Heightened Def Con from 2.21795e-05 to 2.21795e-05
Heightened Def Con from 2.21795e-05 to 2.21795e-05
Heightened Def Con from 2.21795e-05 to 2.21795e-05
Heightened Def Con from 2.21795e-05 to 2.21795e-05
Heightened Def Con from 2.21795e-05 to 2.21795e-05
Heightened Def Con from 2.21795e-05 to 2.21795e-05
Heightened Def Con from 2.21795e-05 to 2.21795e-05
Heightened Def Con from 2.21795e-05 to 2.21795e-05
Heightened Def Con from 2.21795e-05 to 2.21795e-05
Heightened Def Con from 2.21795e-05 to 2.21795e-05
Heightened Def Con from 2.21795e-05 to 2.21795e-05
Heightened Def Con from 2.21795e-05 to 2.21795e-05
Heightened Def Con from 2.21795e-05 to 2.21795e-05
Heightened Def Con from 2.21795e-05 to 2.21796e-05
Heightened Def Con from 2.21796e-05 to 2.21796e-05
Heightened Def Con from 2.21796e-05 to 2.21796e-05
Heightened Def Con from 2.21796e-05 to 2.21796e-05
Heightened Def Con from 2.21796e-05 to 2.21796e-05
Heightened Def Con from 2.21796e-05 to 2.21796e-05
Heightened Def Con from 2.21796e-05 to 2.21796e-05
Heightened Def Con from 2.21796e-05 to 2.21796e-05
Heightened Def Con from 2.21796e-05 to 2.21796e-05
Heightened Def Con from 2.21796e-05 to 2.21796e-05
Heightened Def Con from 2.21796e-05 to 2.21796e-05
Heightened Def Con from 2.21796e-05 to 2.21796e-05
Heightened Def Con from 2.21796e-05 to 2.21796e-05
Heightened Def Con from 2.21796e-05 to 2.21796e-05
Heightened Def Con from 2.21796e-05 to 2.21796e-05
Heightened Def Con from 2.21796e-05 to 2.21796e-05
Heightened Def Con from 2.21796e-05 to 2.21796e-05
Heightened Def Con from 2.21796e-05 to 2.21796e-05
Heightened Def Con from 2.21796e-05 to 2.21796e-05
Heightened Def Con from 2.21796e-05 to 2.21796e-05
Heightened Def Con from 2.21796e-05 to 2.21796e-05
Heightened Def Con from 2.21796e-05 to 2.21796e-05
Heightened Def Con from 2.21796e-05 to 2.21796e-05
Heightened Def Con from 2.21796e-05 to 2.21796e-05
Heightened Def Con from 2.21796e-05 to 2.21796e-05
Heightened Def Con from 2.21796e-05 to 2.21796e-05
Heightened Def Con from 2.21796e-05 to 2.21796e-05
Heightened Def Con from 2.21796e-05 to 2.21796e-05
Heightened Def Con from 2.21796e-05 to 2.21796e-05
Heightened Def Con from 2.21796e-05 to 2.21796e-05
Heightened Def Con from 2.21796e-05 to 2.21796e-05
Heightened Def Con from 2.21796e-05 to 2.21796e-05
Heightened Def Con from 2.21796e-05 +to 2.21796e-05
Heightened Def Con from 2.21796e-05 to 2.21796e-05
Heightened Def Con from 2.21796e-05 to 2.21796e-05
Heightened Def Con from 2.21796e-05 to 2.21796e-05
Heightened Def Con from 2.21796e-05 to 2.21796e-05
Heightened Def Con from 2.21796e-05 to 2.21796e-05
Heightened Def Con from 2.21796e-05 to 2.21796e-05
Heightened Def Con from 2.21796e-05 to 2.21796e-05
Heightened Def Con from 2.21796e-05 to 2.21796e-05
Heightened Def Con from 2.21796e-05 to 2.21796e-05
Heightened Def Con from 2.21796e-05 to 2.21796e-05
Heightened Def Con from 2.21796e-05 to 2.21796e-05
Heightened Def Con from 2.21796e-05 to 2.21796e-05
Heightened Def Con from 2.21796e-05 to 2.21796e-05
Heightened Def Con from 2.21796e-05 to 2.21796e-05
Heightened Def Con from 2.21796e-05 to 2.21796e-05
Heightened Def Con from 2.21796e-05 +to 2.21796e-05
Heightened Def Con from 2.21796e-05 to 2.21796e-05
Heightened Def Con from 2.21796e-05 to 2.21796e-05
Heightened Def Con from 2.21796e-05 to 2.21796e-05
Heightened Def Con from 2.21796e-05 to 2.21796e-05
Heightened Def Con from 2.21796e-05 to 2.21796e-05
Heightened Def Con from 2.21796e-05 to 2.21796e-05
Heightened Def Con from 2.21796e-05 to 2.21796e-05
Heightened Def Con from 2.21796e-05 to 2.21796e-05
Heightened Def Con from 2.21796e-05 to 2.21796e-05
Heightened Def Con from 2.21796e-05 to 2.21796e-05
Heightened Def Con from 2.21796e-05 to 2.21796e-05
Heightened Def Con from 2.21796e-05 to 2.21796e-05
Heightened Def Con from 2.21796e-05 to 2.21796e-05
Heightened Def Con from 2.21796e-05 to 2.21796e-05
Heightened Def Con from 2.21796e-05 to 2.21796e-05
Heightened Def Con from 2.21796e-05 to 2.21796e-05
Heightened Def Con from 2.21796e-05 to 2.21796e-05
Heightened Def Con from 2.21796e-05 to 2.21796e-05
Heightened Def Con from 2.21796e-05 to 2.21796e-05
Heightened Def Con from 2.21796e-05 to 2.21796e-05
Heightened Def Con from 2.21796e-05 to 2.21796e-05
Heightened Def Con from 2.21796e-05 to 2.21796e-05
Heightened Def Con from 2.21796e-05 to 2.21796e-05
Heightened Def Con from 2.21796e-05 to 2.21796e-05
Heightened Def Con from 2.21796e-05 to 2.21796e-05
Heightened Def Con from 2.21796e-05 to 2.21796e-05
Heightened Def Con from 2.21796e-05 to 2.21796e-05
Heightened Def Con from 2.21796e-05 to 2.21796e-05
Heightened Def Con from 2.21796e-05 to 2.21796e-05
Heightened Def Con from 2.21796e-05 to 2.21796e-05
Heightened Def Con from 2.21796e-05 to 2.21798e-05
Heightened Def Con from 2.21798e-05 +to 2.21798e-05
Heightened Def Con from 2.21798e-05 ++to 2.21798e-05
Heightened Def Con from 2.21798e-05 to 2.21798e-05
Heightened Def Con from 2.21798e-05 to 2.21798e-05
Heightened Def Con from 2.21798e-05 to 2.21798e-05
Heightened Def Con from 2.21798e-05 +to 2.21798e-05
Heightened Def Con from 2.21798e-05 to 2.21798e-05
Heightened Def Con from 2.21798e-05 to 2.21798e-05
Heightened Def Con from 2.21798e-05 to 2.21798e-05
Heightened Def Con from 2.21798e-05 to 2.21798e-05
Heightened Def Con from 2.21798e-05 to 2.21798e-05
Heightened Def Con from 2.21798e-05 to 2.21798e-05
Heightened Def Con from 2.21798e-05 to 2.21798e-05
Heightened Def Con from 2.21798e-05 to 2.21798e-05
Heightened Def Con from 2.21798e-05 to 2.21798e-05
Heightened Def Con from 2.21798e-05 to 2.21798e-05
Heightened Def Con from 2.21798e-05 to 2.21798e-05
Heightened Def Con from 2.21798e-05 to 2.21798e-05
Heightened Def Con from 2.21798e-05 to 2.21799e-05
Heightened Def Con from 2.21799e-05 to 2.21799e-05
Heightened Def Con from 2.21799e-05 +to 2.21799e-05
Heightened Def Con from 2.21799e-05 +++to 2.21799e-05
Heightened Def Con from 2.21799e-05 to 2.21799e-05
Heightened Def Con from 2.21799e-05 +to 2.21799e-05
Heightened Def Con from 2.21799e-05 to 2.21799e-05
Heightened Def Con from 2.21799e-05 to 2.21799e-05
Heightened Def Con from 2.21799e-05 to 2.21799e-05
Heightened Def Con from 2.21799e-05 +to 2.21799e-05
Heightened Def Con from 2.21799e-05 to 2.21799e-05
Heightened Def Con from 2.21799e-05 ++to 2.21799e-05
Heightened Def Con from 2.21799e-05 to 2.21799e-05
Heightened Def Con from 2.21799e-05 to 2.21799e-05
Heightened Def Con from 2.21799e-05 ++to 2.21799e-05
Heightened Def Con from 2.21799e-05 to 2.21799e-05
Heightened Def Con from 2.21799e-05 ++++to 2.21809e-05
Heightened Def Con from 2.21809e-05 +to 2.21809e-05
Heightened Def Con from 2.21809e-05 +to 2.2181e-05
Heightened Def Con from 2.2181e-05 ++++++to 2.2181e-05
Heightened Def Con from 2.2181e-05 to 2.2181e-05
Heightened Def Con from 2.2181e-05 to 2.2181e-05
Heightened Def Con from 2.2181e-05 ++to 2.2181e-05
Heightened Def Con from 2.2181e-05 +to 2.21811e-05
Heightened Def Con from 2.21811e-05 ++to 2.21811e-05
Heightened Def Con from 2.21811e-05 ++++to 2.21811e-05
Heightened Def Con from 2.21811e-05 to 2.21811e-05
Heightened Def Con from 2.21811e-05 +++++to 2.21831e-05
Heightened Def Con from 2.21831e-05 ++++++++++++to 2.21831e-05
Heightened Def Con from 2.21831e-05 +++++to 2.21831e-05
Heightened Def Con from 2.21831e-05 to 2.21831e-05
Heightened Def Con from 2.21831e-05 ++to 2.21831e-05
Heightened Def Con from 2.21831e-05 ++to 2.21831e-05
Heightened Def Con from 2.21831e-05 to 2.21831e-05
Heightened Def Con from 2.21831e-05 to 2.21831e-05
Heightened Def Con from 2.21831e-05 +++++++++++++++to 2.21831e-05
Heightened Def Con from 2.21831e-05 ++++++++++++++++++++++to 2.21831e-05
Heightened Def Con from 2.21831e-05 ++++++++++++++++++++++++++++++++to 2.21841e-05
Heightened Def Con from 2.21841e-05 +++++++++++to 2.21851e-05
Heightened Def Con from 2.21851e-05 to 2.21851e-05
Heightened Def Con from 2.21851e-05 to 2.21851e-05
Heightened Def Con from 2.21852e-05 to 2.21852e-05
Heightened Def Con from 2.21852e-05 to 2.21852e-05
Heightened Def Con from 2.21852e-05 to 2.21852e-05
Heightened Def Con from 2.21852e-05 to 2.21852e-05
Heightened Def Con from 2.21852e-05 to 2.21852e-05
Heightened Def Con from 2.21852e-05 to 2.21852e-05
Heightened Def Con from 2.21852e-05 to 2.21852e-05
Heightened Def Con from 2.21852e-05 to 2.21852e-05
Heightened Def Con from 2.21852e-05 to 2.21852e-05
Heightened Def Con from 2.21852e-05 to 2.21852e-05
Heightened Def Con from 2.21852e-05 to 2.21852e-05
Heightened Def Con from 2.21852e-05 to 2.21852e-05
Heightened Def Con from 2.21852e-05 to 2.21852e-05
Heightened Def Con from 2.21852e-05 to 2.21852e-05
Heightened Def Con from 2.21852e-05 +to 2.21853e-05
Heightened Def Con from 2.21853e-05 to 2.21853e-05
Heightened Def Con from 2.21853e-05 to 2.21853e-05
Heightened Def Con from 2.21853e-05 to 2.21853e-05
Heightened Def Con from 2.21853e-05 ++to 2.21853e-05
Heightened Def Con from 2.21853e-05 to 2.21853e-05
Heightened Def Con from 2.21853e-05 to 2.21853e-05
Heightened Def Con from 2.21853e-05 +to 2.21853e-05
Heightened Def Con from 2.21853e-05 +to 2.21853e-05
Heightened Def Con from 2.21853e-05 to 2.21853e-05
Heightened Def Con from 2.21853e-05 ++to 2.21853e-05
Heightened Def Con from 2.21853e-05 to 2.21853e-05
Heightened Def Con from 2.21853e-05 +++++to 2.21855e-05
Heightened Def Con from 2.21855e-05 ++to 2.21855e-05
Heightened Def Con from 2.21855e-05 +++++++to 2.21856e-05
Heightened Def Con from 2.21856e-05 +++++++++++to 2.21856e-05
Heightened Def Con from 2.21856e-05 +to 2.21856e-05
Heightened Def Con from 2.21856e-05 +to 2.21856e-05
Heightened Def Con from 2.21856e-05 ++++++++++++to 2.21856e-05
Heightened Def Con from 2.21856e-05 +++++++++++to 2.21856e-05
Heightened Def Con from 2.21856e-05 ++++++to 2.21866e-05
Heightened Def Con from 2.21866e-05 ++++++++++++to 2.21866e-05
Heightened Def Con from 2.21866e-05 +to 2.21866e-05
Heightened Def Con from 2.21866e-05 +++++++++++++++to 2.21869e-05
Heightened Def Con from 2.21869e-05 ++++to 2.21869e-05
Heightened Def Con from 2.21869e-05 +++to 2.21869e-05
Heightened Def Con from 2.21869e-05 ++++to 2.21869e-05
Heightened Def Con from 2.21869e-05 +++to 2.21869e-05
Heightened Def Con from 2.21869e-05 ++++to 2.21869e-05
Heightened Def Con from 2.21869e-05 +++++to 2.21869e-05
Heightened Def Con from 2.21869e-05 ++to 2.21869e-05
Heightened Def Con from 2.21869e-05 +++++++to 2.21869e-05
Heightened Def Con from 2.21869e-05 +to 2.21869e-05
Heightened Def Con from 2.21869e-05 ++++to 2.21879e-05
Heightened Def Con from 2.21879e-05 +++to 2.21879e-05
Heightened Def Con from 2.21879e-05 +++++++++to 2.21879e-05
Heightened Def Con from 2.21879e-05 +++++++++++++++++++++++++++++++++to 2.2192e-05
Heightened Def Con from 2.2192e-05 +++++++++++++++++++++++to 2.2192e-05
Heightened Def Con from 2.2192e-05 to 2.21922e-05
Heightened Def Con from 2.21925e-05 to 2.21925e-05
Heightened Def Con from 2.21926e-05 to 2.21926e-05
Heightened Def Con from 2.21926e-05 to 2.21926e-05
Heightened Def Con from 2.21926e-05 +to 2.21926e-05
Heightened Def Con from 2.21926e-05 to 2.21926e-05
Heightened Def Con from 2.21926e-05 to 2.21926e-05
Heightened Def Con from 2.21926e-05 to 2.21926e-05
Heightened Def Con from 2.21926e-05 to 2.21926e-05
Heightened Def Con from 2.21926e-05 to 2.21926e-05
Heightened Def Con from 2.21926e-05 to 2.21926e-05
Heightened Def Con from 2.21926e-05 to 2.21926e-05
Heightened Def Con from 2.21926e-05 to 2.21926e-05
Heightened Def Con from 2.21926e-05 to 2.21926e-05
Heightened Def Con from 2.21926e-05 to 2.21926e-05
Heightened Def Con from 2.21926e-05 to 2.21926e-05
Heightened Def Con from 2.21926e-05 to 2.21926e-05
Heightened Def Con from 2.21926e-05 to 2.21926e-05
Heightened Def Con from 2.21926e-05 to 2.21926e-05
Heightened Def Con from 2.21926e-05 to 2.21926e-05
Heightened Def Con from 2.21926e-05 to 2.21926e-05
Heightened Def Con from 2.21926e-05 to 2.21926e-05
Heightened Def Con from 2.21926e-05 to 2.21926e-05
Heightened Def Con from 2.21926e-05 to 2.21926e-05
Heightened Def Con from 2.21926e-05 to 2.21926e-05
Heightened Def Con from 2.21926e-05 to 2.21926e-05
Heightened Def Con from 2.21926e-05 to 2.21926e-05
Heightened Def Con from 2.21926e-05 to 2.21926e-05
Heightened Def Con from 2.21926e-05 to 2.21926e-05
Heightened Def Con from 2.21926e-05 +to 2.21926e-05
Heightened Def Con from 2.21926e-05 to 2.21926e-05
Heightened Def Con from 2.21926e-05 to 2.21926e-05
Heightened Def Con from 2.21926e-05 +to 2.21926e-05
Heightened Def Con from 2.21926e-05 +to 2.21926e-05
Heightened Def Con from 2.21926e-05 to 2.21926e-05
Heightened Def Con from 2.21926e-05 to 2.21926e-05
Heightened Def Con from 2.21926e-05 to 2.21926e-05
Heightened Def Con from 2.21926e-05 to 2.21926e-05
Heightened Def Con from 2.21926e-05 to 2.21926e-05
Heightened Def Con from 2.21926e-05 to 2.21926e-05
Heightened Def Con from 2.21926e-05 +to 2.21926e-05
Heightened Def Con from 2.21926e-05 to 2.21926e-05
Heightened Def Con from 2.21926e-05 to 2.21926e-05
Heightened Def Con from 2.21926e-05 to 2.21926e-05
Heightened Def Con from 2.21926e-05 to 2.21926e-05
Heightened Def Con from 2.21926e-05 to 2.21926e-05
Heightened Def Con from 2.21926e-05 to 2.21926e-05
Heightened Def Con from 2.21926e-05 to 2.21926e-05
Heightened Def Con from 2.21926e-05 ++to 2.21926e-05
Heightened Def Con from 2.21926e-05 to 2.21926e-05
Heightened Def Con from 2.21926e-05 to 2.21926e-05
Heightened Def Con from 2.21926e-05 to 2.21926e-05
Heightened Def Con from 2.21926e-05 to 2.21926e-05
Heightened Def Con from 2.21926e-05 to 2.21926e-05
Heightened Def Con from 2.21926e-05 to 2.21926e-05
Heightened Def Con from 2.21926e-05 to 2.21926e-05
Heightened Def Con from 2.21926e-05 to 2.21926e-05
Heightened Def Con from 2.21926e-05 ++to 2.21926e-05
Heightened Def Con from 2.21926e-05 +++to 2.21926e-05
Heightened Def Con from 2.21926e-05 to 2.21926e-05
Heightened Def Con from 2.21926e-05 to 2.21926e-05
Heightened Def Con from 2.21926e-05 +to 2.21926e-05
Heightened Def Con from 2.21926e-05 +to 2.21926e-05
Heightened Def Con from 2.21926e-05 ++to 2.21926e-05
Heightened Def Con from 2.21926e-05 ++to 2.21926e-05
Heightened Def Con from 2.21926e-05 ++to 2.21926e-05
Heightened Def Con from 2.21926e-05 to 2.21926e-05
Heightened Def Con from 2.21926e-05 to 2.21926e-05
Heightened Def Con from 2.21926e-05 to 2.21926e-05
Heightened Def Con from 2.21926e-05 ++to 2.21926e-05
Heightened Def Con from 2.21926e-05 to 2.21926e-05
Heightened Def Con from 2.21926e-05 to 2.21926e-05
Heightened Def Con from 2.21926e-05 to 2.21926e-05
Heightened Def Con from 2.21926e-05 +to 2.21926e-05
Heightened Def Con from 2.21926e-05 ++to 2.21926e-05
Heightened Def Con from 2.21926e-05 +to 2.21926e-05
Heightened Def Con from 2.21926e-05 to 2.21926e-05
Heightened Def Con from 2.21926e-05 to 2.21926e-05
Heightened Def Con from 2.21926e-05 +to 2.21926e-05
Heightened Def Con from 2.21926e-05 ++to 2.21926e-05
Heightened Def Con from 2.21926e-05 to 2.21926e-05
Heightened Def Con from 2.21926e-05 to 2.21926e-05
Heightened Def Con from 2.21926e-05 to 2.21926e-05
Heightened Def Con from 2.21926e-05 to 2.21926e-05
Heightened Def Con from 2.21926e-05 to 2.21926e-05
Heightened Def Con from 2.21926e-05 +to 2.21926e-05
Heightened Def Con from 2.21926e-05 to 2.21926e-05
Heightened Def Con from 2.21926e-05 to 2.21926e-05
Heightened Def Con from 2.21926e-05 to 2.21926e-05
Heightened Def Con from 2.21926e-05 ++to 2.21926e-05
Heightened Def Con from 2.21926e-05 +to 2.21926e-05
Heightened Def Con from 2.21926e-05 to 2.21926e-05
Heightened Def Con from 2.21926e-05 to 2.21926e-05
Heightened Def Con from 2.21926e-05 to 2.21926e-05
Heightened Def Con from 2.21926e-05 +++to 2.21927e-05
Heightened Def Con from 2.21927e-05 ++++to 2.21927e-05
Heightened Def Con from 2.21927e-05 +++++++++++++to 2.21927e-05
Heightened Def Con from 2.21927e-05 +to 2.21927e-05
Heightened Def Con from 2.21927e-05 ++++++++++++++++++to 2.21927e-05
Heightened Def Con from 2.21927e-05 +++++to 2.21927e-05
Heightened Def Con from 2.21927e-05 +++to 2.21928e-05
Heightened Def Con from 2.21928e-05 +++++++++++++++++++++++++++++++++to 2.21939e-05
Heightened Def Con from 2.21939e-05 to 2.21939e-05
Heightened Def Con from 2.21943e-05 to 2.21943e-05
Heightened Def Con from 2.21943e-05 to 2.21943e-05
Heightened Def Con from 2.21943e-05 to 2.21943e-05
Heightened Def Con from 2.21944e-05 to 2.21944e-05
Heightened Def Con from 2.21944e-05 to 2.21944e-05
Heightened Def Con from 2.21944e-05 to 2.21944e-05
Heightened Def Con from 2.21944e-05 to 2.21944e-05
Heightened Def Con from 2.21944e-05 to 2.21944e-05
Heightened Def Con from 2.21944e-05 to 2.21944e-05
Heightened Def Con from 2.21944e-05 to 2.21944e-05
Heightened Def Con from 2.21944e-05 to 2.21944e-05
Heightened Def Con from 2.21944e-05 to 2.21944e-05
Heightened Def Con from 2.21944e-05 to 2.21944e-05
Heightened Def Con from 2.21944e-05 to 2.21944e-05
Heightened Def Con from 2.21944e-05 to 2.21944e-05
Heightened Def Con from 2.21944e-05 +++++++++to 2.21945e-05
Heightened Def Con from 2.21945e-05 ++++++++to 2.21945e-05
Heightened Def Con from 2.21945e-05 ++++++++++++to 2.21945e-05
Heightened Def Con from 2.21945e-05 ++++++++++++++++++++++++++to 2.21947e-05
Heightened Def Con from 2.21947e-05 +to 2.21947e-05
Heightened Def Con from 2.21947e-05 +++to 2.21947e-05
Heightened Def Con from 2.21947e-05 to 2.21947e-05
Heightened Def Con from 2.21947e-05 +to 2.21947e-05
Heightened Def Con from 2.21947e-05 to 2.21947e-05
Heightened Def Con from 2.21947e-05 to 2.21947e-05
Heightened Def Con from 2.21947e-05 ++to 2.21947e-05
Heightened Def Con from 2.21947e-05 to 2.21947e-05
Heightened Def Con from 2.21947e-05 ++to 2.21947e-05
Heightened Def Con from 2.21947e-05 ++to 2.21947e-05
Heightened Def Con from 2.21947e-05 to 2.21947e-05
Heightened Def Con from 2.21947e-05 +to 2.21947e-05
Heightened Def Con from 2.21947e-05 to 2.21947e-05
Heightened Def Con from 2.21947e-05 +to 2.21947e-05
Heightened Def Con from 2.21947e-05 ++++to 2.21947e-05
Heightened Def Con from 2.21947e-05 to 2.21947e-05
Heightened Def Con from 2.21947e-05 +to 2.21947e-05
Heightened Def Con from 2.21947e-05 to 2.21947e-05
Heightened Def Con from 2.21947e-05 to 2.21947e-05
Heightened Def Con from 2.21947e-05 +to 2.21947e-05
Heightened Def Con from 2.21947e-05 to 2.21947e-05
Heightened Def Con from 2.21947e-05 to 2.21947e-05
Heightened Def Con from 2.21947e-05 to 2.21947e-05
Heightened Def Con from 2.21947e-05 +to 2.21947e-05
Heightened Def Con from 2.21947e-05 to 2.21947e-05
Heightened Def Con from 2.21947e-05 +to 2.21947e-05
Heightened Def Con from 2.21947e-05 to 2.21947e-05
Heightened Def Con from 2.21947e-05 ++++++to 2.21947e-05
Heightened Def Con from 2.21947e-05 to 2.21947e-05
Heightened Def Con from 2.21947e-05 ++to 2.21947e-05
Heightened Def Con from 2.21947e-05 +to 2.21947e-05
Heightened Def Con from 2.21947e-05 to 2.21947e-05
Heightened Def Con from 2.21947e-05 to 2.21947e-05
Heightened Def Con from 2.21947e-05 +to 2.21947e-05
Heightened Def Con from 2.21947e-05 to 2.21947e-05
Heightened Def Con from 2.21947e-05 +to 2.21947e-05
Heightened Def Con from 2.21947e-05 ++++++++++++++++++++++++++++Singular matrix:  Check node n017
   Iteration No. 9
Fatal Error: Singular matrix:  check node n017
   Iteration No. 9

This circuit has floating nodes.
