LTspice 24.0.9 for Windows
Circuit: * C:\Users\elect\Documents\GitHub\ECE2799_LED-Lamp\Simulation\LT3799-1_DC1816A.asc
Start Time: Fri Apr  4 11:37:08 2025
Warning: Multiple definitions of model "1n4007" Type: Diode
solver = Normal
Maximum thread count: 16
tnom = 27
temp = 27
method = modified trap
Limiting fall time of source v2 to 0.1
Direct Newton iteration failed to find .op point.  (Use ".option noopiter" to skip.)
Starting Gmin stepping
Gmin = 10
Gmin = 1.07374
Gmin = 0.115292
Gmin = 0.0123794
Gmin = 0.00132923
Gmin = 0.000142725
Gmin = 1.5325e-05
Gmin = 1.6455e-06
Gmin = 1.76685e-07
Gmin = 1.89714e-08
Gmin = 2.03704e-09
Gmin = 2.18725e-10
Gmin = 2.34854e-11
Gmin = 2.52173e-12
Gmin = 2.70769e-13
Gmin = 0
Gmin stepping succeeded in finding the operating point.

Ignoring empty pin current: Ix(1:a)
Ignoring empty pin current: Ix(1:k)
Ignoring empty pin current: Ix(2:d)
Ignoring empty pin current: Ix(2:g)
Ignoring empty pin current: Ix(2:s)
Ignoring empty pin current: Ix(3:na)
Ignoring empty pin current: Ix(3:nb)
Ignoring empty pin current: Ix(4:na)
Ignoring empty pin current: Ix(4:nb)
Ignoring empty pin current: Ix(5:na)
Ignoring empty pin current: Ix(5:nb)
Ignoring empty pin current: Ix(6:na)
Ignoring empty pin current: Ix(6:nb)
Ignoring empty pin current: Ix(7:na)
Ignoring empty pin current: Ix(7:nb)
Ignoring empty pin current: Ix(u1:12)
Ignoring empty pin current: Ix(1:a)
Ignoring empty pin current: Ix(1:k)
Ignoring empty pin current: Ix(2:d)
Ignoring empty pin current: Ix(2:g)
Ignoring empty pin current: Ix(2:s)
Ignoring empty pin current: Ix(3:na)
Ignoring empty pin current: Ix(3:nb)
Ignoring empty pin current: Ix(4:na)
Ignoring empty pin current: Ix(4:nb)
Ignoring empty pin current: Ix(5:na)
Ignoring empty pin current: Ix(5:nb)
Ignoring empty pin current: Ix(6:na)
Ignoring empty pin current: Ix(6:nb)
Ignoring empty pin current: Ix(7:na)
Ignoring empty pin current: Ix(7:nb)
Ignoring empty pin current: Ix(u1:12)
Heightened Def Con from 0.00159334 to 0.00159334
Heightened Def Con from 0.00159687 to 0.00159687
Heightened Def Con from 0.00160066 to 0.00160066
Heightened Def Con from 0.00162911 to 0.00162912
Heightened Def Con from 0.00164333 to 0.00164334
Heightened Def Con from 0.00165878 to 0.00165878
Heightened Def Con from 0.00167515 to 0.00167515
Heightened Def Con from 0.00169222 to 0.00169222
Heightened Def Con from 0.00169248 to 0.00169248
Heightened Def Con from 0.00171013 to 0.00171013
Heightened Def Con from 0.00174582 to 0.00174582
Heightened Def Con from 0.00174588 to 0.00174589
Heightened Def Con from 0.00175074 to 0.00175074
Heightened Def Con from 0.00324522 to 0.00324523
Heightened Def Con from 0.00326619 to 0.00326619
Heightened Def Con from 0.00328797 to 0.00328797
Heightened Def Con from 0.00329835 to 0.00329836
Heightened Def Con from 0.00331147 to 0.00331147
Heightened Def Con from 0.00332554 to 0.00332554
Heightened Def Con from 0.00332559 to 0.00332559
Heightened Def Con from 0.00334066 to 0.00334066
Heightened Def Con from 0.00335659 to 0.00335659
Heightened Def Con from 0.00337286 +to 0.00337286
Heightened Def Con from 0.00337316 to 0.00337316
Heightened Def Con from 0.00338851 to 0.00338851
Heightened Def Con from 0.0033894 to 0.0033894
Heightened Def Con from 0.00341512 to 0.00341512
Heightened Def Con from 0.00341535 to 0.00341536
Heightened Def Con from 0.0034257 to 0.0034257
Heightened Def Con from 0.00342641 to 0.00342641
Heightened Def Con from 0.00343672 to 0.00343672
Heightened Def Con from 0.00345467 to 0.00345467
Heightened Def Con from 0.00382768 to 0.00382768
Heightened Def Con from 0.00384607 to 0.00384607
Heightened Def Con from 0.00434985 to 0.00434986
Heightened Def Con from 0.00439104 to 0.00439105
Heightened Def Con from 0.00439479 to 0.00439479
Heightened Def Con from 0.00479499 to 0.00479499
Heightened Def Con from 0.00487151 to 0.00487151
Heightened Def Con from 0.00487458 to 0.00487459
Heightened Def Con from 0.00487785 to 0.00487785
Heightened Def Con from 0.0048998 to 0.0048998
Heightened Def Con from 0.00491024 to 0.00491024
Heightened Def Con from 0.00494809 to 0.00494809
Heightened Def Con from 0.00497023 to 0.00497023
Heightened Def Con from 0.00501172 to 0.00501173
Heightened Def Con from 0.00502679 to 0.00502679
Heightened Def Con from 0.00546072 to 0.00546072
Total elapsed time: 1092.095 seconds.

